<routes>
    <vType id="slow_car" accel="1" decel="6" length="6" minGap="0.2" maxSpeed="30.0" sigma="0.0" color="0,1,0"/>
    <vType id="medium_car" accel="2" decel="8" length="5" minGap="0.2" maxSpeed="40.0" sigma="0.0" color="0,1,1"/>
    <vType id="fast_car" accel="3" decel="9" length="3" minGap="0.2" maxSpeed="60.0" sigma="0.0" color="1,0,0"/>
 
    <vType id="fast_bus" accel="3" decel="6" length="10" minGap="0.2" maxSpeed="30.0" sigma="0.0" color="1,0,0" guiShape="bus"/>
    <vType id="slow_bus" accel="1" decel="8" length="10" minGap="0.2" maxSpeed="20.0" sigma="0.0" color="0,1,0" guiShape="bus"/>

    <vType id="slow_motorcycle" accel="2" decel="5" length="3" minGap="0.2" maxSpeed="30.0" sigma="0.0" color="255,255,255" guiShape="motorcycle"/>
    <vType id="fast_motorcycle" accel="3" decel="4" length="3" minGap="0.2" maxSpeed="60.0" sigma="0.0" color="1,0,0" guiShape="motorcycle"/>

    <route id="AL_A/A_B/B_C/C_CR" edges="AL_A A_B B_C C_CR"/>
    <route id="CR_C/C_B/B_A/A_AL" edges="CR_C C_B B_A A_AL"/>
    <route id="DR_D/D_E/E_F/F_FL" edges="DR_D D_E E_F F_FL"/>
    <route id="FL_F/F_E/E_D/D_DR" edges="FL_F F_E E_D D_DR"/>
        
    <vehicle id="left_0" type="slow_car" route="AL_A/A_B/B_C/C_CR" depart="0" />
    <vehicle id="left_1" type="slow_car" route="AL_A/A_B/B_C/C_CR" depart="2" />
    <vehicle id="right_2" type="slow_car" route="AL_A/A_B/B_C/C_CR" depart="3" />
    <vehicle id="right_3" type="slow_car" route="AL_A/A_B/B_C/C_CR" depart="4" />
    <vehicle id="left_4" type="slow_car" route="AL_A/A_B/B_C/C_CR" depart="6" />
    <vehicle id="right_5" type="slow_car" route="AL_A/A_B/B_C/C_CR" depart="9" />
    <vehicle id="left_6" type="slow_car" route="AL_A/A_B/B_C/C_CR" depart="22" />
    <vehicle id="left_7" type="slow_car" route="AL_A/A_B/B_C/C_CR" depart="31" />
    <vehicle id="left_8" type="slow_car" route="AL_A/A_B/B_C/C_CR" depart="33" />
    <vehicle id="left_9" type="slow_car" route="AL_A/A_B/B_C/C_CR" depart="41" />
    <vehicle id="right_10" type="slow_car" route="AL_A/A_B/B_C/C_CR" depart="42" />
    <vehicle id="left_11" type="slow_car" route="AL_A/A_B/B_C/C_CR" depart="45" />
    <vehicle id="left_12" type="slow_car" route="AL_A/A_B/B_C/C_CR" depart="53" />
    <vehicle id="right_13" type="slow_car" route="AL_A/A_B/B_C/C_CR" depart="55" />
    <vehicle id="right_14" type="slow_car" route="AL_A/A_B/B_C/C_CR" depart="61" />
    <vehicle id="right_15" type="slow_car" route="AL_A/A_B/B_C/C_CR" depart="69" />
    <vehicle id="right_16" type="slow_car" route="AL_A/A_B/B_C/C_CR" depart="84" />
    <vehicle id="left_17" type="slow_car" route="AL_A/A_B/B_C/C_CR" depart="85" />
    <vehicle id="down_18" type="slow_car" route="AL_A/A_B/B_C/C_CR" depart="89" color="1,0,0"/>
    <vehicle id="down_19" type="slow_car" route="AL_A/A_B/B_C/C_CR" depart="96" color="1,0,0"/>
    <vehicle id="right_20" type="slow_car" route="AL_A/A_B/B_C/C_CR" depart="99" />
    <vehicle id="left_21" type="slow_car" route="AL_A/A_B/B_C/C_CR" depart="99" />
    <vehicle id="right_22" type="slow_car" route="AL_A/A_B/B_C/C_CR" depart="108" />
    <vehicle id="right_23" type="slow_car" route="AL_A/A_B/B_C/C_CR" depart="114" />
    <vehicle id="down_24" type="slow_car" route="AL_A/A_B/B_C/C_CR" depart="122" color="1,0,0"/>
    <vehicle id="right_25" type="slow_car" route="AL_A/A_B/B_C/C_CR" depart="125" />
    <vehicle id="left_26" type="slow_car" route="AL_A/A_B/B_C/C_CR" depart="131" />
    <vehicle id="left_27" type="slow_car" route="AL_A/A_B/B_C/C_CR" depart="135" />
    <vehicle id="left_28" type="slow_car" route="AL_A/A_B/B_C/C_CR" depart="138" />
    <vehicle id="left_29" type="slow_car" route="AL_A/A_B/B_C/C_CR" depart="142" />
    <vehicle id="right_30" type="slow_car" route="AL_A/A_B/B_C/C_CR" depart="145" />
    <vehicle id="left_31" type="slow_car" route="AL_A/A_B/B_C/C_CR" depart="153" />
    <vehicle id="left_32" type="slow_car" route="AL_A/A_B/B_C/C_CR" depart="156" />
    <vehicle id="left_33" type="slow_car" route="AL_A/A_B/B_C/C_CR" depart="160" />
    <vehicle id="left_34" type="slow_car" route="AL_A/A_B/B_C/C_CR" depart="164" />
    <vehicle id="right_35" type="slow_car" route="AL_A/A_B/B_C/C_CR" depart="167" />
    <vehicle id="right_36" type="slow_car" route="AL_A/A_B/B_C/C_CR" depart="168" />
    <vehicle id="left_37" type="slow_car" route="AL_A/A_B/B_C/C_CR" depart="169" />
    <vehicle id="left_38" type="slow_car" route="AL_A/A_B/B_C/C_CR" depart="172" />
    <vehicle id="down_39" type="slow_car" route="AL_A/A_B/B_C/C_CR" depart="172" color="1,0,0"/>
    <vehicle id="right_40" type="slow_car" route="AL_A/A_B/B_C/C_CR" depart="176" />
    <vehicle id="right_41" type="slow_car" route="AL_A/A_B/B_C/C_CR" depart="181" />
    <vehicle id="right_42" type="slow_car" route="AL_A/A_B/B_C/C_CR" depart="183" />
    <vehicle id="left_43" type="slow_car" route="AL_A/A_B/B_C/C_CR" depart="194" />
    <vehicle id="left_44" type="slow_car" route="AL_A/A_B/B_C/C_CR" depart="196" />
    <vehicle id="left_45" type="slow_car" route="AL_A/A_B/B_C/C_CR" depart="199" />
    <vehicle id="right_46" type="slow_car" route="AL_A/A_B/B_C/C_CR" depart="200" />
    <vehicle id="left_47" type="slow_car" route="AL_A/A_B/B_C/C_CR" depart="212" />
    <vehicle id="right_48" type="slow_car" route="AL_A/A_B/B_C/C_CR" depart="217" />
    <vehicle id="left_49" type="slow_car" route="AL_A/A_B/B_C/C_CR" depart="219" />
    <vehicle id="right_50" type="slow_car" route="AL_A/A_B/B_C/C_CR" depart="228" />
    <vehicle id="left_51" type="slow_car" route="AL_A/A_B/B_C/C_CR" depart="234" />
    <vehicle id="left_52" type="slow_car" route="AL_A/A_B/B_C/C_CR" depart="238" />
    <vehicle id="right_53" type="slow_car" route="AL_A/A_B/B_C/C_CR" depart="240" />
    <vehicle id="left_54" type="slow_car" route="AL_A/A_B/B_C/C_CR" depart="272" />
    <vehicle id="left_55" type="slow_car" route="AL_A/A_B/B_C/C_CR" depart="275" />
    <vehicle id="right_56" type="slow_car" route="AL_A/A_B/B_C/C_CR" depart="284" />
    <vehicle id="right_57" type="slow_car" route="AL_A/A_B/B_C/C_CR" depart="286" />
    <vehicle id="right_58" type="slow_car" route="AL_A/A_B/B_C/C_CR" depart="288" />
    <vehicle id="right_59" type="slow_car" route="AL_A/A_B/B_C/C_CR" depart="291" />
    <vehicle id="right_60" type="slow_car" route="AL_A/A_B/B_C/C_CR" depart="294" />
    <vehicle id="down_61" type="slow_car" route="AL_A/A_B/B_C/C_CR" depart="318" color="1,0,0"/>
    <vehicle id="right_62" type="slow_car" route="AL_A/A_B/B_C/C_CR" depart="322" />
    <vehicle id="down_63" type="slow_car" route="AL_A/A_B/B_C/C_CR" depart="331" color="1,0,0"/>
    <vehicle id="down_64" type="slow_car" route="AL_A/A_B/B_C/C_CR" depart="337" color="1,0,0"/>
    <vehicle id="left_65" type="slow_car" route="AL_A/A_B/B_C/C_CR" depart="339" />
    <vehicle id="right_66" type="slow_car" route="AL_A/A_B/B_C/C_CR" depart="342" />
    <vehicle id="left_67" type="slow_car" route="AL_A/A_B/B_C/C_CR" depart="344" />
    <vehicle id="down_68" type="slow_car" route="AL_A/A_B/B_C/C_CR" depart="344" color="1,0,0"/>
    <vehicle id="left_69" type="slow_car" route="AL_A/A_B/B_C/C_CR" depart="346" />
    <vehicle id="right_70" type="slow_car" route="AL_A/A_B/B_C/C_CR" depart="354" />
    <vehicle id="right_71" type="slow_car" route="AL_A/A_B/B_C/C_CR" depart="375" />
    <vehicle id="down_72" type="slow_car" route="AL_A/A_B/B_C/C_CR" depart="377" color="1,0,0"/>
    <vehicle id="down_73" type="slow_car" route="AL_A/A_B/B_C/C_CR" depart="379" color="1,0,0"/>
    <vehicle id="right_74" type="slow_car" route="AL_A/A_B/B_C/C_CR" depart="383" />
    <vehicle id="left_75" type="slow_car" route="AL_A/A_B/B_C/C_CR" depart="388" />
    <vehicle id="left_76" type="slow_car" route="AL_A/A_B/B_C/C_CR" depart="389" />
    <vehicle id="left_77" type="slow_car" route="AL_A/A_B/B_C/C_CR" depart="391" />
    <vehicle id="right_78" type="slow_car" route="AL_A/A_B/B_C/C_CR" depart="394" />
    <vehicle id="right_79" type="slow_car" route="AL_A/A_B/B_C/C_CR" depart="395" />
    <vehicle id="down_80" type="slow_car" route="AL_A/A_B/B_C/C_CR" depart="397" color="1,0,0"/>
    <vehicle id="right_81" type="slow_car" route="AL_A/A_B/B_C/C_CR" depart="412" />
    <vehicle id="left_82" type="slow_car" route="AL_A/A_B/B_C/C_CR" depart="413" />
    <vehicle id="left_83" type="slow_car" route="AL_A/A_B/B_C/C_CR" depart="415" />
    <vehicle id="left_84" type="slow_car" route="AL_A/A_B/B_C/C_CR" depart="420" />
    <vehicle id="right_85" type="slow_car" route="AL_A/A_B/B_C/C_CR" depart="427" />
    <vehicle id="down_86" type="slow_car" route="AL_A/A_B/B_C/C_CR" depart="457" color="1,0,0"/>
    <vehicle id="right_87" type="slow_car" route="AL_A/A_B/B_C/C_CR" depart="458" />
    <vehicle id="down_88" type="slow_car" route="AL_A/A_B/B_C/C_CR" depart="459" color="1,0,0"/>
    <vehicle id="down_89" type="slow_car" route="AL_A/A_B/B_C/C_CR" depart="463" color="1,0,0"/>
    <vehicle id="right_90" type="slow_car" route="AL_A/A_B/B_C/C_CR" depart="464" />
    <vehicle id="right_91" type="slow_car" route="AL_A/A_B/B_C/C_CR" depart="467" />
    <vehicle id="left_92" type="slow_car" route="AL_A/A_B/B_C/C_CR" depart="469" />
    <vehicle id="left_93" type="slow_car" route="AL_A/A_B/B_C/C_CR" depart="472" />
    <vehicle id="right_94" type="slow_car" route="AL_A/A_B/B_C/C_CR" depart="473" />
    <vehicle id="left_95" type="slow_car" route="AL_A/A_B/B_C/C_CR" depart="476" />
    <vehicle id="right_96" type="slow_car" route="AL_A/A_B/B_C/C_CR" depart="479" />
    <vehicle id="right_97" type="slow_car" route="AL_A/A_B/B_C/C_CR" depart="482" />
    <vehicle id="left_98" type="slow_car" route="AL_A/A_B/B_C/C_CR" depart="483" />
    <vehicle id="right_99" type="slow_car" route="AL_A/A_B/B_C/C_CR" depart="484" />
    <vehicle id="left_100" type="slow_car" route="AL_A/A_B/B_C/C_CR" depart="492" />
    <vehicle id="right_101" type="slow_car" route="AL_A/A_B/B_C/C_CR" depart="494" />
    <vehicle id="left_102" type="slow_car" route="AL_A/A_B/B_C/C_CR" depart="496" />
    <vehicle id="right_103" type="slow_car" route="AL_A/A_B/B_C/C_CR" depart="502" />
    <vehicle id="left_104" type="slow_car" route="AL_A/A_B/B_C/C_CR" depart="514" />
    <vehicle id="down_105" type="slow_car" route="AL_A/A_B/B_C/C_CR" depart="518" color="1,0,0"/>
    <vehicle id="right_106" type="slow_car" route="AL_A/A_B/B_C/C_CR" depart="523" />
    <vehicle id="left_107" type="slow_car" route="AL_A/A_B/B_C/C_CR" depart="527" />
    <vehicle id="right_108" type="slow_car" route="AL_A/A_B/B_C/C_CR" depart="536" />
    <vehicle id="left_109" type="slow_car" route="AL_A/A_B/B_C/C_CR" depart="536" />
    <vehicle id="left_110" type="slow_car" route="AL_A/A_B/B_C/C_CR" depart="541" />
    <vehicle id="left_111" type="slow_car" route="AL_A/A_B/B_C/C_CR" depart="552" />
    <vehicle id="left_112" type="slow_car" route="AL_A/A_B/B_C/C_CR" depart="554" />
    <vehicle id="right_113" type="slow_car" route="AL_A/A_B/B_C/C_CR" depart="565" />
    <vehicle id="down_114" type="slow_car" route="AL_A/A_B/B_C/C_CR" depart="573" color="1,0,0"/>
    <vehicle id="left_115" type="slow_car" route="AL_A/A_B/B_C/C_CR" depart="578" />
    <vehicle id="left_116" type="slow_car" route="AL_A/A_B/B_C/C_CR" depart="579" />
    <vehicle id="left_117" type="slow_car" route="AL_A/A_B/B_C/C_CR" depart="582" />
    <vehicle id="left_118" type="slow_car" route="AL_A/A_B/B_C/C_CR" depart="602" />
    <vehicle id="left_119" type="slow_car" route="AL_A/A_B/B_C/C_CR" depart="606" />
    <vehicle id="right_120" type="slow_car" route="AL_A/A_B/B_C/C_CR" depart="612" />
    <vehicle id="down_121" type="slow_car" route="AL_A/A_B/B_C/C_CR" depart="624" color="1,0,0"/>
    <vehicle id="left_122" type="slow_car" route="AL_A/A_B/B_C/C_CR" depart="634" />
    <vehicle id="left_123" type="slow_car" route="AL_A/A_B/B_C/C_CR" depart="635" />
    <vehicle id="right_124" type="slow_car" route="AL_A/A_B/B_C/C_CR" depart="636" />
    <vehicle id="left_125" type="slow_car" route="AL_A/A_B/B_C/C_CR" depart="641" />
    <vehicle id="right_126" type="slow_car" route="AL_A/A_B/B_C/C_CR" depart="644" />
    <vehicle id="left_127" type="slow_car" route="AL_A/A_B/B_C/C_CR" depart="646" />
    <vehicle id="down_128" type="slow_car" route="AL_A/A_B/B_C/C_CR" depart="653" color="1,0,0"/>
    <vehicle id="right_129" type="slow_car" route="AL_A/A_B/B_C/C_CR" depart="654" />
    <vehicle id="left_130" type="slow_car" route="AL_A/A_B/B_C/C_CR" depart="659" />
    <vehicle id="left_131" type="slow_car" route="AL_A/A_B/B_C/C_CR" depart="660" />
    <vehicle id="left_132" type="slow_car" route="AL_A/A_B/B_C/C_CR" depart="661" />
    <vehicle id="left_133" type="slow_car" route="AL_A/A_B/B_C/C_CR" depart="663" />
    <vehicle id="right_134" type="slow_car" route="AL_A/A_B/B_C/C_CR" depart="668" />
    <vehicle id="left_135" type="slow_car" route="AL_A/A_B/B_C/C_CR" depart="683" />
    <vehicle id="right_136" type="slow_car" route="AL_A/A_B/B_C/C_CR" depart="701" />
    <vehicle id="right_137" type="slow_car" route="AL_A/A_B/B_C/C_CR" depart="704" />
    <vehicle id="down_138" type="slow_car" route="AL_A/A_B/B_C/C_CR" depart="706" color="1,0,0"/>
    <vehicle id="left_139" type="slow_car" route="AL_A/A_B/B_C/C_CR" depart="707" />
    <vehicle id="down_140" type="slow_car" route="AL_A/A_B/B_C/C_CR" depart="708" color="1,0,0"/>
    <vehicle id="left_141" type="slow_car" route="AL_A/A_B/B_C/C_CR" depart="717" />
    <vehicle id="down_142" type="slow_car" route="AL_A/A_B/B_C/C_CR" depart="717" color="1,0,0"/>
    <vehicle id="right_143" type="slow_car" route="AL_A/A_B/B_C/C_CR" depart="720" />
    <vehicle id="left_144" type="slow_car" route="AL_A/A_B/B_C/C_CR" depart="722" />
    <vehicle id="right_145" type="slow_car" route="AL_A/A_B/B_C/C_CR" depart="724" />
    <vehicle id="right_146" type="slow_car" route="AL_A/A_B/B_C/C_CR" depart="731" />
    <vehicle id="down_147" type="slow_car" route="AL_A/A_B/B_C/C_CR" depart="733" color="1,0,0"/>
    <vehicle id="right_148" type="slow_car" route="AL_A/A_B/B_C/C_CR" depart="738" />
    <vehicle id="left_149" type="slow_car" route="AL_A/A_B/B_C/C_CR" depart="740" />
    <vehicle id="left_150" type="slow_car" route="AL_A/A_B/B_C/C_CR" depart="743" />
    <vehicle id="right_151" type="slow_car" route="AL_A/A_B/B_C/C_CR" depart="744" />
    <vehicle id="right_152" type="slow_car" route="AL_A/A_B/B_C/C_CR" depart="746" />
    <vehicle id="left_153" type="slow_car" route="AL_A/A_B/B_C/C_CR" depart="749" />
    <vehicle id="left_154" type="slow_car" route="AL_A/A_B/B_C/C_CR" depart="768" />
    <vehicle id="left_155" type="slow_car" route="AL_A/A_B/B_C/C_CR" depart="774" />
    <vehicle id="down_156" type="slow_car" route="AL_A/A_B/B_C/C_CR" depart="776" color="1,0,0"/>
    <vehicle id="down_157" type="slow_car" route="AL_A/A_B/B_C/C_CR" depart="780" color="1,0,0"/>
    <vehicle id="down_158" type="slow_car" route="AL_A/A_B/B_C/C_CR" depart="791" color="1,0,0"/>
    <vehicle id="left_159" type="slow_car" route="AL_A/A_B/B_C/C_CR" depart="801" />
    <vehicle id="right_160" type="slow_car" route="AL_A/A_B/B_C/C_CR" depart="808" />
    <vehicle id="down_161" type="slow_car" route="AL_A/A_B/B_C/C_CR" depart="808" color="1,0,0"/>
    <vehicle id="right_162" type="slow_car" route="AL_A/A_B/B_C/C_CR" depart="812" />
    <vehicle id="left_163" type="slow_car" route="AL_A/A_B/B_C/C_CR" depart="812" />
    <vehicle id="right_164" type="slow_car" route="AL_A/A_B/B_C/C_CR" depart="826" />
    <vehicle id="down_165" type="slow_car" route="AL_A/A_B/B_C/C_CR" depart="838" color="1,0,0"/>
    <vehicle id="right_166" type="slow_car" route="AL_A/A_B/B_C/C_CR" depart="841" />
    <vehicle id="left_167" type="slow_car" route="AL_A/A_B/B_C/C_CR" depart="845" />
    <vehicle id="down_168" type="slow_car" route="AL_A/A_B/B_C/C_CR" depart="847" color="1,0,0"/>
    <vehicle id="left_169" type="slow_car" route="AL_A/A_B/B_C/C_CR" depart="854" />
    <vehicle id="right_170" type="slow_car" route="AL_A/A_B/B_C/C_CR" depart="856" />
    <vehicle id="right_171" type="slow_car" route="AL_A/A_B/B_C/C_CR" depart="858" />
    <vehicle id="left_172" type="slow_car" route="AL_A/A_B/B_C/C_CR" depart="862" />
    <vehicle id="left_173" type="slow_car" route="AL_A/A_B/B_C/C_CR" depart="865" />
    <vehicle id="left_174" type="slow_car" route="AL_A/A_B/B_C/C_CR" depart="868" />
    <vehicle id="right_175" type="slow_car" route="AL_A/A_B/B_C/C_CR" depart="879" />
    <vehicle id="left_176" type="slow_car" route="AL_A/A_B/B_C/C_CR" depart="879" />
    <vehicle id="right_177" type="slow_car" route="AL_A/A_B/B_C/C_CR" depart="880" />
    <vehicle id="left_178" type="slow_car" route="AL_A/A_B/B_C/C_CR" depart="880" />
    <vehicle id="right_179" type="slow_car" route="AL_A/A_B/B_C/C_CR" depart="887" />
    <vehicle id="left_180" type="slow_car" route="AL_A/A_B/B_C/C_CR" depart="888" />
    <vehicle id="down_181" type="slow_car" route="AL_A/A_B/B_C/C_CR" depart="895" color="1,0,0"/>
    <vehicle id="right_182" type="slow_car" route="AL_A/A_B/B_C/C_CR" depart="907" />
    <vehicle id="down_183" type="slow_car" route="AL_A/A_B/B_C/C_CR" depart="911" color="1,0,0"/>
    <vehicle id="right_184" type="slow_car" route="AL_A/A_B/B_C/C_CR" depart="916" />
    <vehicle id="left_185" type="slow_car" route="AL_A/A_B/B_C/C_CR" depart="918" />
    <vehicle id="right_186" type="slow_car" route="AL_A/A_B/B_C/C_CR" depart="921" />
    <vehicle id="right_187" type="slow_car" route="AL_A/A_B/B_C/C_CR" depart="922" />
    <vehicle id="left_188" type="slow_car" route="AL_A/A_B/B_C/C_CR" depart="924" />
    <vehicle id="right_189" type="slow_car" route="AL_A/A_B/B_C/C_CR" depart="939" />
    <vehicle id="down_190" type="slow_car" route="AL_A/A_B/B_C/C_CR" depart="941" color="1,0,0"/>
    <vehicle id="left_191" type="slow_car" route="AL_A/A_B/B_C/C_CR" depart="945" />
    <vehicle id="right_192" type="slow_car" route="AL_A/A_B/B_C/C_CR" depart="948" />
    <vehicle id="right_193" type="slow_car" route="AL_A/A_B/B_C/C_CR" depart="950" />
    <vehicle id="left_194" type="slow_car" route="AL_A/A_B/B_C/C_CR" depart="952" />
    <vehicle id="left_195" type="slow_car" route="AL_A/A_B/B_C/C_CR" depart="954" />
    <vehicle id="left_196" type="slow_car" route="AL_A/A_B/B_C/C_CR" depart="965" />
    <vehicle id="down_197" type="slow_car" route="AL_A/A_B/B_C/C_CR" depart="969" color="1,0,0"/>
    <vehicle id="left_198" type="slow_car" route="AL_A/A_B/B_C/C_CR" depart="973" />
    <vehicle id="down_199" type="slow_car" route="AL_A/A_B/B_C/C_CR" depart="974" color="1,0,0"/>
    <vehicle id="left_200" type="slow_car" route="AL_A/A_B/B_C/C_CR" depart="977" />
    <vehicle id="right_201" type="slow_car" route="AL_A/A_B/B_C/C_CR" depart="989" />
    <vehicle id="left_202" type="slow_car" route="AL_A/A_B/B_C/C_CR" depart="993" />
    <vehicle id="down_203" type="slow_car" route="AL_A/A_B/B_C/C_CR" depart="996" color="1,0,0"/>
    <vehicle id="left_204" type="slow_car" route="AL_A/A_B/B_C/C_CR" depart="1001" />
    <vehicle id="right_205" type="slow_car" route="AL_A/A_B/B_C/C_CR" depart="1003" />
    <vehicle id="right_206" type="slow_car" route="AL_A/A_B/B_C/C_CR" depart="1005" />
    <vehicle id="left_207" type="slow_car" route="AL_A/A_B/B_C/C_CR" depart="1006" />
    <vehicle id="right_208" type="slow_car" route="AL_A/A_B/B_C/C_CR" depart="1011" />
    <vehicle id="left_209" type="slow_car" route="AL_A/A_B/B_C/C_CR" depart="1014" />
    <vehicle id="left_210" type="slow_car" route="AL_A/A_B/B_C/C_CR" depart="1015" />
    <vehicle id="left_211" type="slow_car" route="AL_A/A_B/B_C/C_CR" depart="1026" />
    <vehicle id="left_212" type="slow_car" route="AL_A/A_B/B_C/C_CR" depart="1034" />
    <vehicle id="right_213" type="slow_car" route="AL_A/A_B/B_C/C_CR" depart="1043" />
    <vehicle id="right_214" type="slow_car" route="AL_A/A_B/B_C/C_CR" depart="1047" />
    <vehicle id="right_215" type="slow_car" route="AL_A/A_B/B_C/C_CR" depart="1049" />
    <vehicle id="down_216" type="slow_car" route="AL_A/A_B/B_C/C_CR" depart="1056" color="1,0,0"/>
    <vehicle id="right_217" type="slow_car" route="AL_A/A_B/B_C/C_CR" depart="1061" />
    <vehicle id="right_218" type="slow_car" route="AL_A/A_B/B_C/C_CR" depart="1068" />
    <vehicle id="right_219" type="slow_car" route="AL_A/A_B/B_C/C_CR" depart="1069" />
    <vehicle id="left_220" type="slow_car" route="AL_A/A_B/B_C/C_CR" depart="1070" />
    <vehicle id="right_221" type="slow_car" route="AL_A/A_B/B_C/C_CR" depart="1078" />
    <vehicle id="left_222" type="slow_car" route="AL_A/A_B/B_C/C_CR" depart="1085" />
    <vehicle id="right_223" type="slow_car" route="AL_A/A_B/B_C/C_CR" depart="1093" />
    <vehicle id="left_224" type="slow_car" route="AL_A/A_B/B_C/C_CR" depart="1097" />
    <vehicle id="left_225" type="slow_car" route="AL_A/A_B/B_C/C_CR" depart="1099" />
    <vehicle id="left_226" type="slow_car" route="AL_A/A_B/B_C/C_CR" depart="1104" />
    <vehicle id="down_227" type="slow_car" route="AL_A/A_B/B_C/C_CR" depart="1109" color="1,0,0"/>
    <vehicle id="right_228" type="slow_car" route="AL_A/A_B/B_C/C_CR" depart="1123" />
    <vehicle id="left_229" type="slow_car" route="AL_A/A_B/B_C/C_CR" depart="1124" />
    <vehicle id="left_230" type="slow_car" route="AL_A/A_B/B_C/C_CR" depart="1135" />
    <vehicle id="left_231" type="slow_car" route="AL_A/A_B/B_C/C_CR" depart="1137" />
    <vehicle id="right_232" type="slow_car" route="AL_A/A_B/B_C/C_CR" depart="1141" />
    <vehicle id="left_233" type="slow_car" route="AL_A/A_B/B_C/C_CR" depart="1143" />
    <vehicle id="right_234" type="slow_car" route="AL_A/A_B/B_C/C_CR" depart="1146" />
    <vehicle id="left_235" type="slow_car" route="AL_A/A_B/B_C/C_CR" depart="1150" />
    <vehicle id="down_236" type="slow_car" route="AL_A/A_B/B_C/C_CR" depart="1153" color="1,0,0"/>
    <vehicle id="left_237" type="slow_car" route="AL_A/A_B/B_C/C_CR" depart="1156" />
    <vehicle id="right_238" type="slow_car" route="AL_A/A_B/B_C/C_CR" depart="1167" />
    <vehicle id="left_239" type="slow_car" route="AL_A/A_B/B_C/C_CR" depart="1172" />
    <vehicle id="left_240" type="slow_car" route="AL_A/A_B/B_C/C_CR" depart="1181" />
    <vehicle id="right_241" type="slow_car" route="AL_A/A_B/B_C/C_CR" depart="1208" />
    <vehicle id="right_242" type="slow_car" route="AL_A/A_B/B_C/C_CR" depart="1212" />
    <vehicle id="left_243" type="slow_car" route="AL_A/A_B/B_C/C_CR" depart="1218" />
    <vehicle id="left_244" type="slow_car" route="AL_A/A_B/B_C/C_CR" depart="1232" />
    <vehicle id="left_245" type="slow_car" route="AL_A/A_B/B_C/C_CR" depart="1237" />
    <vehicle id="left_246" type="slow_car" route="AL_A/A_B/B_C/C_CR" depart="1246" />
    <vehicle id="right_247" type="slow_car" route="AL_A/A_B/B_C/C_CR" depart="1252" />
    <vehicle id="left_248" type="slow_car" route="AL_A/A_B/B_C/C_CR" depart="1252" />
    <vehicle id="left_249" type="slow_car" route="AL_A/A_B/B_C/C_CR" depart="1255" />
    <vehicle id="right_250" type="slow_car" route="AL_A/A_B/B_C/C_CR" depart="1258" />
    <vehicle id="right_251" type="slow_car" route="AL_A/A_B/B_C/C_CR" depart="1267" />
    <vehicle id="right_252" type="slow_car" route="AL_A/A_B/B_C/C_CR" depart="1275" />
    <vehicle id="left_253" type="slow_car" route="AL_A/A_B/B_C/C_CR" depart="1281" />
    <vehicle id="left_254" type="slow_car" route="AL_A/A_B/B_C/C_CR" depart="1288" />
    <vehicle id="right_255" type="slow_car" route="AL_A/A_B/B_C/C_CR" depart="1289" />
    <vehicle id="down_256" type="slow_car" route="AL_A/A_B/B_C/C_CR" depart="1289" color="1,0,0"/>
    <vehicle id="left_257" type="slow_car" route="AL_A/A_B/B_C/C_CR" depart="1301" />
    <vehicle id="right_258" type="slow_car" route="AL_A/A_B/B_C/C_CR" depart="1302" />
    <vehicle id="right_259" type="slow_car" route="AL_A/A_B/B_C/C_CR" depart="1304" />
    <vehicle id="down_260" type="slow_car" route="AL_A/A_B/B_C/C_CR" depart="1317" color="1,0,0"/>
    <vehicle id="right_261" type="slow_car" route="AL_A/A_B/B_C/C_CR" depart="1318" />
    <vehicle id="left_262" type="slow_car" route="AL_A/A_B/B_C/C_CR" depart="1319" />
    <vehicle id="right_263" type="slow_car" route="AL_A/A_B/B_C/C_CR" depart="1320" />
    <vehicle id="right_264" type="slow_car" route="AL_A/A_B/B_C/C_CR" depart="1322" />
    <vehicle id="left_265" type="slow_car" route="AL_A/A_B/B_C/C_CR" depart="1323" />
    <vehicle id="left_266" type="slow_car" route="AL_A/A_B/B_C/C_CR" depart="1332" />
    <vehicle id="right_267" type="slow_car" route="AL_A/A_B/B_C/C_CR" depart="1340" />
    <vehicle id="left_268" type="slow_car" route="AL_A/A_B/B_C/C_CR" depart="1344" />
    <vehicle id="right_269" type="slow_car" route="AL_A/A_B/B_C/C_CR" depart="1357" />
    <vehicle id="left_270" type="slow_car" route="AL_A/A_B/B_C/C_CR" depart="1359" />
    <vehicle id="left_271" type="slow_car" route="AL_A/A_B/B_C/C_CR" depart="1366" />
    <vehicle id="right_272" type="slow_car" route="AL_A/A_B/B_C/C_CR" depart="1367" />
    <vehicle id="right_273" type="slow_car" route="AL_A/A_B/B_C/C_CR" depart="1370" />
    <vehicle id="left_274" type="slow_car" route="AL_A/A_B/B_C/C_CR" depart="1370" />
    <vehicle id="right_275" type="slow_car" route="AL_A/A_B/B_C/C_CR" depart="1375" />
    <vehicle id="down_276" type="slow_car" route="AL_A/A_B/B_C/C_CR" depart="1380" color="1,0,0"/>
    <vehicle id="left_277" type="slow_car" route="AL_A/A_B/B_C/C_CR" depart="1381" />
    <vehicle id="right_278" type="slow_car" route="AL_A/A_B/B_C/C_CR" depart="1384" />
    <vehicle id="right_279" type="slow_car" route="AL_A/A_B/B_C/C_CR" depart="1385" />
    <vehicle id="right_280" type="slow_car" route="AL_A/A_B/B_C/C_CR" depart="1386" />
    <vehicle id="left_281" type="slow_car" route="AL_A/A_B/B_C/C_CR" depart="1394" />
    <vehicle id="down_282" type="slow_car" route="AL_A/A_B/B_C/C_CR" depart="1402" color="1,0,0"/>
    <vehicle id="right_283" type="slow_car" route="AL_A/A_B/B_C/C_CR" depart="1420" />
    <vehicle id="right_284" type="slow_car" route="AL_A/A_B/B_C/C_CR" depart="1428" />
    <vehicle id="right_285" type="slow_car" route="AL_A/A_B/B_C/C_CR" depart="1433" />
    <vehicle id="down_286" type="slow_car" route="AL_A/A_B/B_C/C_CR" depart="1436" color="1,0,0"/>
    <vehicle id="left_287" type="slow_car" route="AL_A/A_B/B_C/C_CR" depart="1441" />
    <vehicle id="right_288" type="slow_car" route="AL_A/A_B/B_C/C_CR" depart="1450" />
    <vehicle id="down_289" type="slow_car" route="AL_A/A_B/B_C/C_CR" depart="1451" color="1,0,0"/>
    <vehicle id="right_290" type="slow_car" route="AL_A/A_B/B_C/C_CR" depart="1453" />
    <vehicle id="left_291" type="slow_car" route="AL_A/A_B/B_C/C_CR" depart="1454" />
    <vehicle id="down_292" type="slow_car" route="AL_A/A_B/B_C/C_CR" depart="1463" color="1,0,0"/>
    <vehicle id="right_293" type="slow_car" route="AL_A/A_B/B_C/C_CR" depart="1464" />
    <vehicle id="left_294" type="slow_car" route="AL_A/A_B/B_C/C_CR" depart="1470" />
    <vehicle id="right_295" type="slow_car" route="AL_A/A_B/B_C/C_CR" depart="1471" />
    <vehicle id="right_296" type="slow_car" route="AL_A/A_B/B_C/C_CR" depart="1475" />
    <vehicle id="left_297" type="slow_car" route="AL_A/A_B/B_C/C_CR" depart="1478" />
    <vehicle id="down_298" type="slow_car" route="AL_A/A_B/B_C/C_CR" depart="1483" color="1,0,0"/>
    <vehicle id="right_299" type="slow_car" route="AL_A/A_B/B_C/C_CR" depart="1484" />
    <vehicle id="right_300" type="slow_car" route="AL_A/A_B/B_C/C_CR" depart="1488" />
    <vehicle id="left_301" type="slow_car" route="AL_A/A_B/B_C/C_CR" depart="1497" />
    <vehicle id="right_302" type="slow_car" route="AL_A/A_B/B_C/C_CR" depart="1499" />
    <vehicle id="left_303" type="slow_car" route="AL_A/A_B/B_C/C_CR" depart="1500" />
    <vehicle id="left_304" type="slow_car" route="AL_A/A_B/B_C/C_CR" depart="1512" />
    <vehicle id="right_305" type="slow_car" route="AL_A/A_B/B_C/C_CR" depart="1513" />
    <vehicle id="right_306" type="slow_car" route="AL_A/A_B/B_C/C_CR" depart="1516" />
    <vehicle id="down_307" type="slow_car" route="AL_A/A_B/B_C/C_CR" depart="1533" color="1,0,0"/>
    <vehicle id="left_308" type="slow_car" route="AL_A/A_B/B_C/C_CR" depart="1536" />
    <vehicle id="right_309" type="slow_car" route="AL_A/A_B/B_C/C_CR" depart="1544" />
    <vehicle id="left_310" type="slow_car" route="AL_A/A_B/B_C/C_CR" depart="1547" />
    <vehicle id="left_311" type="slow_car" route="AL_A/A_B/B_C/C_CR" depart="1550" />
    <vehicle id="left_312" type="slow_car" route="AL_A/A_B/B_C/C_CR" depart="1554" />
    <vehicle id="right_313" type="slow_car" route="AL_A/A_B/B_C/C_CR" depart="1555" />
    <vehicle id="right_314" type="slow_car" route="AL_A/A_B/B_C/C_CR" depart="1559" />
    <vehicle id="left_315" type="slow_car" route="AL_A/A_B/B_C/C_CR" depart="1560" />
    <vehicle id="left_316" type="slow_car" route="AL_A/A_B/B_C/C_CR" depart="1562" />
    <vehicle id="right_317" type="slow_car" route="AL_A/A_B/B_C/C_CR" depart="1567" />
    <vehicle id="down_318" type="slow_car" route="AL_A/A_B/B_C/C_CR" depart="1568" color="1,0,0"/>
    <vehicle id="right_319" type="slow_car" route="AL_A/A_B/B_C/C_CR" depart="1570" />
    <vehicle id="left_320" type="slow_car" route="AL_A/A_B/B_C/C_CR" depart="1573" />
    <vehicle id="left_321" type="slow_car" route="AL_A/A_B/B_C/C_CR" depart="1574" />
    <vehicle id="right_322" type="slow_car" route="AL_A/A_B/B_C/C_CR" depart="1576" />
    <vehicle id="down_323" type="slow_car" route="AL_A/A_B/B_C/C_CR" depart="1576" color="1,0,0"/>
    <vehicle id="down_324" type="slow_car" route="AL_A/A_B/B_C/C_CR" depart="1578" color="1,0,0"/>
    <vehicle id="left_325" type="slow_car" route="AL_A/A_B/B_C/C_CR" depart="1583" />
    <vehicle id="right_326" type="slow_car" route="AL_A/A_B/B_C/C_CR" depart="1589" />
    <vehicle id="right_327" type="slow_car" route="AL_A/A_B/B_C/C_CR" depart="1591" />
    <vehicle id="right_328" type="slow_car" route="AL_A/A_B/B_C/C_CR" depart="1612" />
    <vehicle id="down_329" type="slow_car" route="AL_A/A_B/B_C/C_CR" depart="1612" color="1,0,0"/>