<routes>
    <vType id="slow_car" accel="1" decel="6" length="6" minGap="0.2" maxSpeed="30.0" sigma="0.0" color="0,1,0"/>
    <vType id="medium_car" accel="2" decel="8" length="5" minGap="0.2" maxSpeed="40.0" sigma="0.0" color="0,1,1"/>
    <vType id="fast_car" accel="3" decel="9" length="4" minGap="0.2" maxSpeed="60.0" sigma="0.0" color="1,0,0"/>
 
    <vType id="fast_bus" accel="3" decel="6" length="10" minGap="0.2" maxSpeed="30.0" sigma="0.0" color="1,0,0" guiShape="bus"/>
    <vType id="slow_bus" accel="1" decel="8" length="10" minGap="0.2" maxSpeed="20.0" sigma="0.0" color="0,1,0" guiShape="bus"/>

    <vType id="slow_motorcycle" accel="2" decel="5" length="3" minGap="0.2" maxSpeed="30.0" sigma="0.0" color="255,255,255" guiShape="motorcycle"/>
    <vType id="fast_motorcycle" accel="3" decel="4" length="3" minGap="0.2" maxSpeed="60.0" sigma="0.0" color="1,0,0" guiShape="motorcycle"/>

   <route id="AL_A/A_B/B_C/C_CR" edges="AL_A A_B B_C C_CR"/>
   <route id="CR_C/C_B/B_A/A_AL" edges="CR_C C_B B_A A_AL"/>
   <route id="DR_D/D_E/E_F/F_FL" edges="DR_D D_E E_F F_FL"/>
   <route id="FL_F/F_E/E_D/D_DR" edges="FL_F F_E E_D D_DR"/>

   <route id="FB_F/F_A/A_AT" edges="FB_F F_A A_AT"/>
   <route id="AT_A/A_F/F_FB" edges="AT_A A_F F_FB"/>
   <route id="CT_C/C_D/D_DB" edges="CT_C C_D D_DB"/>
   <route id="DB_D/D_C/C_CT" edges="DB_D D_C C_CT"/>

   <route id="FB_F/F_E/E_EB" edges="FB_F F_E E_EB"/>
   <route id="FB_F/F_E/E_D/D_DB" edges="FB_F F_E E_D D_DB"/>
   <route id="EB_E/E_D/D_DB" edges="EB_E E_D D_DB"/>
   <route id="BT_B/B_A/A_AT" edges="BT_B B_A A_AT"/>
   <route id="BT_B/B_A/A_AL" edges="BT_B B_A A_AL"/>
   <route id="BT_B/B_C/C_CT" edges="BT_B B_C C_CT"/>
   <route id="BT_B/B_C/C_CR" edges="BT_B B_C C_CR"/>

     <route id="AT_A/A_F/F_FL" edges="AL_A A_F F_FL"/>
     <route id="AT_A/A_F/F_E/E_EB" edges="AT_A A_F F_E E_EB"/>
     <route id="AT_A/A_F/F_E/E_D/D_DB" edges="AT_A A_F F_E E_D D_DB"/>
     <route id="AT_A/A_F/F_E/E_D/D_DR" edges="AT_A A_F F_E E_D D_DB"/>
     <route id="AT_A/A_B/B_C/C_D/D_DB" edges="AL_A A_B B_C C_D D_DB"/>
     <route id="AT_A/A_B/B_C/C_D/D_DR" edges="AL_A A_B B_C C_D D_DR"/>


     <route id="CT_C/C_D/D_E/E_F/F_FL" edges="CT_C C_D D_E E_F F_FL"/>
     <route id="CT_C/C_D/D_E/E_F/F_FB" edges="CT_C C_D D_E E_F F_FB"/>
     <route id="CT_C/C_D/D_DR" edges="CT_C C_D D_DR"/>
     <route id="CT_C/C_B/B_BT" edges="CT_C C_B B_BT"/>
     <route id="CT_C/C_B/B_A/A_AL" edges="CT_C C_B B_A A_AL"/>
     <route id="CT_C/C_B/B_A/A_AT" edges="CT_C C_B B_A A_AT"/>



     <route id="FB_F/F_A/A_B/B_C/C_CR" edges="FB_F F_A A_B B_C C_CR"/>
     <route id="FB_F/F_A/A_B/B_C/C_D/D_DB" edges="FB_F F_A A_B B_C C_CR C_D D_DB"/>
     <route id="FB_F/F_A/A_B/B_C/C_D/D_DR" edges="FB_F F_A A_B B_C C_CR C_D D_DR"/>
     <route id="FB_F/F_E/E_D/D_C/C_CR" edges="FB_F F_E E_D D_C C_CR"/>
     <route id="FB_F/F_E/E_D/D_C/C_CT" edges="FB_F F_E E_D D_C C_CT"/>


     <route id="AL_A/A_B/B_C/C_D/D_DR" edges="AL_A A_B B_C C_D D_DB"/>
     <route id="AL_A/A_B/B_C/C_D/D_DB" edges="AL_A A_B B_C C_D D_DB"/>
     <route id="AL_A/A_F/F_FB" edges="AL_A A_F F_FB"/>
     <route id="AL_A/A_F/F_FL" edges="AL_A A_F F_FL"/>
     <route id="AL_A/A_F/F_E/E_EB" edges="AL_A A_F F_E E_EB"/>
     <route id="AL_A/A_F/F_E/E_D/D_DR" edges="AL_A A_F F_E E_D D_DR"/>
     <route id="AL_A/A_F/F_E/E_D/D_DB" edges="AL_A A_F F_E E_D D_DB"/>

     <route id="CR_C/C_CT" edges="CR_C C_CT"/>
     <route id="CR_C/C_B/B_BT" edges="CR_C C_B B_BT"/>
     <route id="CR_C/C_B/B_A/A_AT" edges="CR_C C_B B_A A_AT"/>

     <route id="DR_D/D_DB" edges="DR_D D_DB"/>
     <route id="DR_D/D_C/C_CR" edges="DR_D D_C C_CR"/>
     <route id="DR_D/D_C/C_CT" edges="DR_D D_C C_CT"/>
     <route id="DR_D/D_E/E_F/F_A/A_AT" edges="DR_D D_E E_F F_A A_AT"/>

     <route id="FL_F/F_E/E_EB" edges="FL_F F_E E_EB"/>
     <route id="FL_F/F_E/E_D/D_DB" edges="FL_F F_E E_D D_DB"/>
     <route id="FL_F/F_FB" edges="FL_F F_FB"/>
     <route id="FL_F/F_A/A_AT" edges="FL_F F_A A_AT"/>

        
    <vehicle id="left_0" type="slow_car" route="CR_C/C_B/B_A/A_AL" depart="0" />
    <vehicle id="left_1" type="medium_car" route="CR_C/C_B/B_A/A_AL" depart="0" />
    <vehicle id="left_3" type="slow_bus" route="CR_C/C_B/B_A/A_AL" depart="0" />
    <vehicle id="right_10" type="slow_motorcycle" route="AL_A/A_F/F_FB" depart="3" />
    <vehicle id="left_12" type="slow_bus" route="DR_D/D_E/E_F/F_FL" depart="4" />
    <vehicle id="left_24" type="medium_car" route="CR_C/C_B/B_A/A_AL" depart="10" />
    <vehicle id="north_27" type="slow_car" route="AT_A/A_F/F_FB" depart="11" />
    <vehicle id="rigth_28" type="medium_car" route="FL_F/F_E/E_D/D_DR" depart="11" />
    <vehicle id="north_35" type="slow_car" route="AT_A/A_F/F_FB" depart="14" />
    <vehicle id="north_38" type="slow_car" route="AT_A/A_F/F_FB" depart="15" />
    <vehicle id="rigth_41" type="medium_car" route="FL_F/F_E/E_D/D_DR" depart="16" />
    <vehicle id="north_46" type="medium_car" route="CT_C/C_D/D_DB" depart="18" />
    <vehicle id="left_49" type="medium_car" route="DR_D/D_E/E_F/F_FL" depart="19" />
    <vehicle id="right_52" type="medium_car" route="AL_A/A_B/B_C/C_CR" depart="20" />
    <vehicle id="left_57" type="fast_car" route="CR_C/C_B/B_A/A_AL" depart="22" />
    <vehicle id="right_60" type="slow_car" route="AL_A/A_B/B_C/C_CR" depart="23" />
    <vehicle id="north_63" type="medium_car" route="CT_C/C_D/D_DB" depart="24" />
    <vehicle id="right_68" type="medium_car" route="AL_A/A_B/B_C/C_CR" depart="26" />
    <vehicle id="left_85" type="slow_motorcycle" route="BT_B/B_A/A_AL" depart="33" />
    <vehicle id="north_96" type="medium_car" route="AT_A/A_F/F_FB" depart="39" />
    <vehicle id="south_105" type="medium_car" route="DB_D/D_C/C_CT" depart="43" />
    <vehicle id="left_110" type="slow_motorcycle" route="BT_B/B_A/A_AL" depart="44" />
    <vehicle id="north_111" type="slow_car" route="AT_A/A_F/F_FB" depart="45" />
    <vehicle id="south_112" type="medium_car" route="DB_D/D_C/C_CT" depart="45" />
    <vehicle id="left_129" type="slow_car" route="CR_C/C_B/B_A/A_AL" depart="53" />
    <vehicle id="north_130" type="medium_car" route="CT_C/C_D/D_DB" depart="53" />
    <vehicle id="north_133" type="slow_car" route="AT_A/A_F/F_FB" depart="54" />
    <vehicle id="north_164" type="medium_car" route="CT_C/C_D/D_DB" depart="69" />
    <vehicle id="right_167" type="fast_car" route="AL_A/A_B/B_C/C_CR" depart="70" />
    <vehicle id="left_172" type="slow_car" route="DR_D/D_E/E_F/F_FL" depart="72" />
    <vehicle id="rigth_179" type="medium_car" route="FL_F/F_E/E_D/D_DR" depart="75" />
    <vehicle id="left_182" type="slow_car" route="DR_D/D_E/E_F/F_FL" depart="76" />
    <vehicle id="south_193" type="slow_car" route="FB_F/F_A/A_AT" depart="81" />
    <vehicle id="south_194" type="medium_car" route="FB_F/F_A/A_AT" depart="81" />
    <vehicle id="right_195" type="fast_car" route="AL_A/A_B/B_C/C_CR" depart="81" />
    <vehicle id="left_202" type="fast_car" route="CR_C/C_B/B_A/A_AL" depart="84" />
    <vehicle id="rigth_205" type="medium_car" route="FL_F/F_E/E_D/D_DR" depart="85" />
    <vehicle id="right_214" type="fast_car" route="AL_A/A_B/B_C/C_CR" depart="89" />
    <vehicle id="left_217" type="slow_car" route="DR_D/D_E/E_F/F_FL" depart="90" />
    <vehicle id="left_220" type="medium_car" route="CR_C/C_B/B_A/A_AL" depart="91" />
    <vehicle id="right_225" type="medium_car" route="AL_A/A_B/B_C/C_CR" depart="93" />
    <vehicle id="left_233" type="slow_bus" route="DR_D/D_E/E_F/F_FL" depart="96" />
    <vehicle id="rigth_236" type="slow_bus" route="FL_F/F_E/E_D/D_DR" depart="97" />
    <vehicle id="south_238" type="medium_car" route="DB_D/D_C/C_CT" depart="98" />
    <vehicle id="north_241" type="medium_car" route="CT_C/C_D/D_DB" depart="99" />
    <vehicle id="rigth_246" type="medium_car" route="FL_F/F_E/E_D/D_DR" depart="101" />
    <vehicle id="left_251" type="medium_car" route="CR_C/C_B/B_A/A_AL" depart="103" />
    <vehicle id="north_256" type="slow_car" route="CT_C/C_D/D_DB" depart="105" />
    <vehicle id="right_257" type="slow_bus" route="AL_A/A_B/B_C/C_CR" depart="105"> <stop busStop="busstop1" duration="25"/> </vehicle>
    <vehicle id="rigth_259" type="slow_motorcycle" route="EB_E/E_D/D_DB" depart="105" />
    <vehicle id="left_264" type="medium_car" route="CR_C/C_B/B_A/A_AL" depart="108" />
    <vehicle id="left_265" type="fast_car" route="CR_C/C_B/B_A/A_AL" depart="108" />
    <vehicle id="left_268" type="slow_car" route="DR_D/D_E/E_F/F_FL" depart="109" />
    <vehicle id="right_269" type="fast_car" route="AL_A/A_B/B_C/C_CR" depart="109" />
    <vehicle id="north_276" type="medium_car" route="AT_A/A_F/F_FB" depart="112" />
    <vehicle id="rigth_281" type="slow_car" route="FL_F/F_E/E_D/D_DR" depart="114" />
    <vehicle id="right_284" type="slow_car" route="AL_A/A_B/B_C/C_CR" depart="115" />
    <vehicle id="rigth_287" type="slow_car" route="FL_F/F_E/E_D/D_DR" depart="116" />
    <vehicle id="left_290" type="slow_car" route="CR_C/C_B/B_A/A_AL" depart="117" />
    <vehicle id="rigth_301" type="medium_car" route="FL_F/F_E/E_D/D_DR" depart="122" />
    <vehicle id="left_304" type="medium_car" route="CR_C/C_B/B_A/A_AL" depart="123" />
    <vehicle id="north_305" type="medium_car" route="CT_C/C_D/D_DB" depart="123" />
    <vehicle id="rigth_314" type="medium_car" route="FL_F/F_E/E_D/D_DR" depart="127" />
    <vehicle id="left_317" type="slow_car" route="CR_C/C_B/B_A/A_AL" depart="128" />
    <vehicle id="right_324" type="slow_car" route="AL_A/A_B/B_C/C_CR" depart="131" />
    <vehicle id="rigth_329" type="slow_car" route="FL_F/F_E/E_D/D_DR" depart="133" />
    <vehicle id="south_334" type="slow_car" route="DB_D/D_C/C_CT" depart="135" />
    <vehicle id="left_343" type="medium_car" route="DR_D/D_E/E_F/F_FL" depart="139" />
    <vehicle id="south_346" type="medium_car" route="DB_D/D_C/C_CT" depart="140" />
    <vehicle id="north_359" type="slow_car" route="CT_C/C_D/D_DB" depart="146" />
    <vehicle id="right_363" type="slow_motorcycle" route="AL_A/A_F/F_FB" depart="147" />
    <vehicle id="left_372" type="slow_car" route="CR_C/C_B/B_A/A_AL" depart="152" />
    <vehicle id="south_373" type="medium_car" route="FB_F/F_A/A_AT" depart="152" />
    <vehicle id="rigth_380" type="slow_car" route="FL_F/F_E/E_D/D_DR" depart="155" />
    <vehicle id="south_383" type="medium_car" route="DB_D/D_C/C_CT" depart="156" />
    <vehicle id="left_387" type="slow_bus" route="CR_C/C_B/B_A/A_AL" depart="157" />
    <vehicle id="right_391" type="medium_car" route="AL_A/A_B/B_C/C_CR" depart="159" />
    <vehicle id="right_397" type="slow_motorcycle" route="AL_A/A_F/F_FB" depart="161" />
    <vehicle id="left_404" type="medium_car" route="CR_C/C_B/B_A/A_AL" depart="165" />
    <vehicle id="right_407" type="medium_car" route="AL_A/A_B/B_C/C_CR" depart="166" />
    <vehicle id="right_410" type="medium_car" route="AL_A/A_B/B_C/C_CR" depart="167" />
    <vehicle id="north_411" type="medium_car" route="CT_C/C_D/D_DB" depart="167" />
    <vehicle id="left_412" type="fast_car" route="CR_C/C_B/B_A/A_AL" depart="167" />
    <vehicle id="north_421" type="slow_car" route="CT_C/C_D/D_DB" depart="171" />
    <vehicle id="rigth_426" type="slow_motorcycle" route="EB_E/E_D/D_DB" depart="172" />
    <vehicle id="rigth_427" type="slow_car" route="FL_F/F_E/E_D/D_DR" depart="173" />
    <vehicle id="south_438" type="medium_car" route="FB_F/F_A/A_AT" depart="178" />
    <vehicle id="right_445" type="slow_car" route="AL_A/A_B/B_C/C_CR" depart="181" />
    <vehicle id="south_446" type="medium_car" route="FB_F/F_A/A_AT" depart="181" />
    <vehicle id="left_449" type="slow_motorcycle" route="BT_B/B_A/A_AL" depart="181" />
    <vehicle id="north_450" type="slow_car" route="AT_A/A_F/F_FB" depart="182" />
    <vehicle id="left_453" type="medium_car" route="CR_C/C_B/B_A/A_AL" depart="183" />
    <vehicle id="right_460" type="slow_car" route="AL_A/A_B/B_C/C_CR" depart="186" />
    <vehicle id="left_461" type="slow_car" route="DR_D/D_E/E_F/F_FL" depart="186" />
    <vehicle id="left_470" type="slow_motorcycle" route="DR_D/D_C/C_CT" depart="189" />
    <vehicle id="left_475" type="fast_car" route="CR_C/C_B/B_A/A_AL" depart="192" />
    <vehicle id="left_478" type="slow_car" route="DR_D/D_E/E_F/F_FL" depart="193" />
    <vehicle id="left_479" type="medium_car" route="CR_C/C_B/B_A/A_AL" depart="193" />
    <vehicle id="right_482" type="fast_car" route="AL_A/A_B/B_C/C_CR" depart="194" />
    <vehicle id="left_485" type="slow_car" route="CR_C/C_B/B_A/A_AL" depart="195" />
    <vehicle id="south_488" type="slow_car" route="FB_F/F_A/A_AT" depart="196" />
    <vehicle id="left_491" type="slow_car" route="CR_C/C_B/B_A/A_AL" depart="197" />
    <vehicle id="left_496" type="slow_car" route="DR_D/D_E/E_F/F_FL" depart="199" />
    <vehicle id="left_501" type="slow_car" route="DR_D/D_E/E_F/F_FL" depart="201" />
    <vehicle id="north_514" type="medium_car" route="CT_C/C_D/D_DB" depart="207" />
    <vehicle id="right_517" type="fast_car" route="AL_A/A_B/B_C/C_CR" depart="208" />
    <vehicle id="south_524" type="medium_car" route="FB_F/F_A/A_AT" depart="211" />
    <vehicle id="left_533" type="medium_car" route="DR_D/D_E/E_F/F_FL" depart="215" />
    <vehicle id="north_534" type="medium_car" route="AT_A/A_F/F_FB" depart="215" />
    <vehicle id="right_537" type="medium_car" route="AL_A/A_B/B_C/C_CR" depart="216" />
    <vehicle id="rigth_545" type="slow_bus" route="FL_F/F_E/E_D/D_DR" depart="219" />
    <vehicle id="right_547" type="medium_car" route="AL_A/A_B/B_C/C_CR" depart="220" />
    <vehicle id="rigth_560" type="slow_car" route="FL_F/F_E/E_D/D_DR" depart="226" />
    <vehicle id="north_567" type="medium_car" route="CT_C/C_D/D_DB" depart="229" />
    <vehicle id="south_572" type="medium_car" route="DB_D/D_C/C_CT" depart="231" />
    <vehicle id="left_579" type="medium_car" route="DR_D/D_E/E_F/F_FL" depart="234" />
    <vehicle id="rigth_588" type="medium_car" route="FL_F/F_E/E_D/D_DR" depart="238" />
    <vehicle id="right_591" type="fast_car" route="AL_A/A_B/B_C/C_CR" depart="239" />
    <vehicle id="left_594" type="medium_car" route="DR_D/D_E/E_F/F_FL" depart="240" />
    <vehicle id="north_599" type="medium_car" route="AT_A/A_F/F_FB" depart="242" />
    <vehicle id="left_604" type="medium_car" route="DR_D/D_E/E_F/F_FL" depart="244" />
    <vehicle id="rigth_619" type="slow_car" route="FL_F/F_E/E_D/D_DR" depart="251" />
    <vehicle id="right_626" type="fast_car" route="AL_A/A_B/B_C/C_CR" depart="254" />
    <vehicle id="north_629" type="slow_car" route="AT_A/A_F/F_FB" depart="255" />
    <vehicle id="left_638" type="slow_car" route="CR_C/C_B/B_A/A_AL" depart="259" />
    <vehicle id="rigth_647" type="slow_car" route="FL_F/F_E/E_D/D_DR" depart="263" />
    <vehicle id="left_648" type="medium_car" route="CR_C/C_B/B_A/A_AL" depart="263" />
    <vehicle id="left_655" type="slow_motorcycle" route="BT_B/B_A/A_AL" depart="265" />
    <vehicle id="right_657" type="slow_motorcycle" route="AL_A/A_F/F_FB" depart="266" />
    <vehicle id="south_670" type="slow_car" route="FB_F/F_A/A_AT" depart="273" />
    <vehicle id="left_671" type="fast_car" route="CR_C/C_B/B_A/A_AL" depart="273" />
    <vehicle id="right_674" type="medium_car" route="AL_A/A_B/B_C/C_CR" depart="274" />
    <vehicle id="left_679" type="slow_motorcycle" route="BT_B/B_A/A_AL" depart="275" />
    <vehicle id="rigth_680" type="slow_car" route="FL_F/F_E/E_D/D_DR" depart="276" />
    <vehicle id="left_683" type="medium_car" route="DR_D/D_E/E_F/F_FL" depart="277" />
    <vehicle id="north_684" type="medium_car" route="CT_C/C_D/D_DB" depart="277" />
    <vehicle id="left_687" type="medium_car" route="DR_D/D_E/E_F/F_FL" depart="278" />
    <vehicle id="right_693" type="slow_motorcycle" route="AL_A/A_F/F_FB" depart="280" />
    <vehicle id="right_694" type="slow_car" route="AL_A/A_B/B_C/C_CR" depart="281" />
    <vehicle id="left_699" type="slow_motorcycle" route="DR_D/D_C/C_CT" depart="282" />
    <vehicle id="south_702" type="slow_car" route="DB_D/D_C/C_CT" depart="284" />
    <vehicle id="right_705" type="medium_car" route="AL_A/A_B/B_C/C_CR" depart="285" />
    <vehicle id="rigth_708" type="slow_car" route="FL_F/F_E/E_D/D_DR" depart="286" />
    <vehicle id="rigth_709" type="medium_car" route="FL_F/F_E/E_D/D_DR" depart="286" />
    <vehicle id="left_718" type="fast_car" route="CR_C/C_B/B_A/A_AL" depart="290" />
    <vehicle id="left_723" type="slow_motorcycle" route="BT_B/B_A/A_AL" depart="291" />
    <vehicle id="right_724" type="medium_car" route="AL_A/A_B/B_C/C_CR" depart="292" />
    <vehicle id="rigth_729" type="medium_car" route="FL_F/F_E/E_D/D_DR" depart="294" />
    <vehicle id="right_734" type="fast_car" route="AL_A/A_B/B_C/C_CR" depart="296" />
    <vehicle id="north_737" type="slow_car" route="AT_A/A_F/F_FB" depart="297" />
    <vehicle id="left_740" type="slow_car" route="CR_C/C_B/B_A/A_AL" depart="298" />
    <vehicle id="left_747" type="fast_car" route="CR_C/C_B/B_A/A_AL" depart="301" />
    <vehicle id="north_750" type="slow_car" route="CT_C/C_D/D_DB" depart="302" />
    <vehicle id="north_753" type="medium_car" route="CT_C/C_D/D_DB" depart="303" />
    <vehicle id="north_756" type="slow_car" route="CT_C/C_D/D_DB" depart="304" />
    <vehicle id="right_763" type="slow_car" route="AL_A/A_B/B_C/C_CR" depart="307" />
    <vehicle id="left_766" type="medium_car" route="CR_C/C_B/B_A/A_AL" depart="308" />
    <vehicle id="south_767" type="medium_car" route="FB_F/F_A/A_AT" depart="308" />
    <vehicle id="right_772" type="slow_car" route="AL_A/A_B/B_C/C_CR" depart="310" />
    <vehicle id="left_779" type="slow_car" route="DR_D/D_E/E_F/F_FL" depart="313" />
    <vehicle id="rigth_786" type="slow_car" route="FL_F/F_E/E_D/D_DR" depart="316" />
    <vehicle id="left_791" type="medium_car" route="CR_C/C_B/B_A/A_AL" depart="318" />
    <vehicle id="south_794" type="medium_car" route="FB_F/F_A/A_AT" depart="319" />
    <vehicle id="rigth_799" type="medium_car" route="FL_F/F_E/E_D/D_DR" depart="321" />
    <vehicle id="left_802" type="slow_motorcycle" route="BT_B/B_A/A_AL" depart="321" />
    <vehicle id="right_805" type="slow_car" route="AL_A/A_B/B_C/C_CR" depart="323" />
    <vehicle id="left_813" type="slow_bus" route="CR_C/C_B/B_A/A_AL" depart="326" />
    <vehicle id="south_823" type="slow_car" route="DB_D/D_C/C_CT" depart="331" />
    <vehicle id="right_828" type="slow_car" route="AL_A/A_B/B_C/C_CR" depart="333" />
    <vehicle id="left_832" type="slow_bus" route="CR_C/C_B/B_A/A_AL" depart="334" />
    <vehicle id="south_838" type="medium_car" route="FB_F/F_A/A_AT" depart="337" />
    <vehicle id="left_845" type="slow_motorcycle" route="BT_B/B_A/A_AL" depart="339" />
    <vehicle id="rigth_848" type="medium_car" route="FL_F/F_E/E_D/D_DR" depart="341" />
    <vehicle id="north_849" type="medium_car" route="CT_C/C_D/D_DB" depart="341" />
    <vehicle id="right_852" type="medium_car" route="AL_A/A_B/B_C/C_CR" depart="342" />
    <vehicle id="right_853" type="fast_car" route="AL_A/A_B/B_C/C_CR" depart="342" />
    <vehicle id="left_856" type="medium_car" route="CR_C/C_B/B_A/A_AL" depart="343" />
    <vehicle id="north_857" type="medium_car" route="AT_A/A_F/F_FB" depart="343" />
    <vehicle id="north_862" type="medium_car" route="CT_C/C_D/D_DB" depart="345" />
    <vehicle id="rigth_871" type="slow_car" route="FL_F/F_E/E_D/D_DR" depart="349" />
    <vehicle id="right_874" type="medium_car" route="AL_A/A_B/B_C/C_CR" depart="350" />
    <vehicle id="north_879" type="medium_car" route="CT_C/C_D/D_DB" depart="352" />
    <vehicle id="north_882" type="slow_car" route="AT_A/A_F/F_FB" depart="353" />
    <vehicle id="south_883" type="slow_car" route="FB_F/F_A/A_AT" depart="353" />
    <vehicle id="south_888" type="slow_car" route="DB_D/D_C/C_CT" depart="355" />
    <vehicle id="rigth_897" type="slow_motorcycle" route="EB_E/E_D/D_DB" depart="358" />
    <vehicle id="rigth_898" type="slow_car" route="FL_F/F_E/E_D/D_DR" depart="359" />
    <vehicle id="rigth_905" type="slow_motorcycle" route="EB_E/E_D/D_DB" depart="361" />
    <vehicle id="left_910" type="medium_car" route="CR_C/C_B/B_A/A_AL" depart="364" />
    <vehicle id="right_915" type="medium_car" route="AL_A/A_B/B_C/C_CR" depart="366" />
    <vehicle id="left_926" type="medium_car" route="CR_C/C_B/B_A/A_AL" depart="371" />
    <vehicle id="north_931" type="slow_car" route="CT_C/C_D/D_DB" depart="373" />
    <vehicle id="north_932" type="medium_car" route="CT_C/C_D/D_DB" depart="373" />
    <vehicle id="rigth_937" type="medium_car" route="FL_F/F_E/E_D/D_DR" depart="375" />
    <vehicle id="left_940" type="slow_car" route="CR_C/C_B/B_A/A_AL" depart="376" />
    <vehicle id="rigth_943" type="slow_car" route="FL_F/F_E/E_D/D_DR" depart="377" />
    <vehicle id="south_944" type="slow_car" route="DB_D/D_C/C_CT" depart="377" />
    <vehicle id="right_948" type="slow_motorcycle" route="AL_A/A_F/F_FB" depart="378" />
    <vehicle id="rigth_959" type="slow_car" route="FL_F/F_E/E_D/D_DR" depart="384" />
    <vehicle id="rigth_962" type="medium_car" route="FL_F/F_E/E_D/D_DR" depart="385" />
    <vehicle id="south_965" type="medium_car" route="DB_D/D_C/C_CT" depart="386" />
    <vehicle id="left_974" type="medium_car" route="DR_D/D_E/E_F/F_FL" depart="390" />
    <vehicle id="north_987" type="slow_car" route="AT_A/A_F/F_FB" depart="396" />
    <vehicle id="left_994" type="medium_car" route="DR_D/D_E/E_F/F_FL" depart="399" />
    <vehicle id="south_995" type="medium_car" route="DB_D/D_C/C_CT" depart="399" />
    <vehicle id="left_996" type="fast_car" route="CR_C/C_B/B_A/A_AL" depart="399" />
    <vehicle id="north_1001" type="slow_car" route="CT_C/C_D/D_DB" depart="401" />
    <vehicle id="left_1003" type="slow_bus" route="DR_D/D_E/E_F/F_FL" depart="401" />
    <vehicle id="left_1009" type="medium_car" route="CR_C/C_B/B_A/A_AL" depart="404" />
    <vehicle id="left_1014" type="slow_car" route="DR_D/D_E/E_F/F_FL" depart="406" />
    <vehicle id="left_1017" type="slow_car" route="CR_C/C_B/B_A/A_AL" depart="407" />
    <vehicle id="left_1020" type="medium_car" route="DR_D/D_E/E_F/F_FL" depart="408" />
    <vehicle id="north_1025" type="medium_car" route="AT_A/A_F/F_FB" depart="410" />
    <vehicle id="left_1032" type="fast_car" route="CR_C/C_B/B_A/A_AL" depart="413" />
    <vehicle id="rigth_1035" type="slow_car" route="FL_F/F_E/E_D/D_DR" depart="414" />
    <vehicle id="south_1036" type="slow_car" route="FB_F/F_A/A_AT" depart="414" />
    <vehicle id="rigth_1042" type="slow_bus" route="FL_F/F_E/E_D/D_DR" depart="416" />
    <vehicle id="rigth_1050" type="slow_car" route="FL_F/F_E/E_D/D_DR" depart="420" />
    <vehicle id="right_1053" type="fast_car" route="AL_A/A_B/B_C/C_CR" depart="421" />
    <vehicle id="south_1060" type="slow_car" route="FB_F/F_A/A_AT" depart="424" />
    <vehicle id="left_1065" type="slow_car" route="CR_C/C_B/B_A/A_AL" depart="426" />
    <vehicle id="left_1068" type="medium_car" route="CR_C/C_B/B_A/A_AL" depart="427" />
    <vehicle id="rigth_1071" type="medium_car" route="FL_F/F_E/E_D/D_DR" depart="428" />
    <vehicle id="north_1074" type="slow_car" route="AT_A/A_F/F_FB" depart="429" />
    <vehicle id="right_1077" type="slow_car" route="AL_A/A_B/B_C/C_CR" depart="430" />
    <vehicle id="right_1086" type="medium_car" route="AL_A/A_B/B_C/C_CR" depart="434" />
    <vehicle id="right_1093" type="medium_car" route="AL_A/A_B/B_C/C_CR" depart="437" />
    <vehicle id="north_1100" type="slow_car" route="AT_A/A_F/F_FB" depart="440" />
    <vehicle id="right_1113" type="slow_car" route="AL_A/A_B/B_C/C_CR" depart="446" />
    <vehicle id="left_1116" type="medium_car" route="CR_C/C_B/B_A/A_AL" depart="447" />
    <vehicle id="rigth_1117" type="medium_car" route="FL_F/F_E/E_D/D_DR" depart="447" />
    <vehicle id="rigth_1120" type="slow_car" route="FL_F/F_E/E_D/D_DR" depart="448" />
    <vehicle id="rigth_1125" type="slow_motorcycle" route="EB_E/E_D/D_DB" depart="449" />
    <vehicle id="south_1130" type="slow_car" route="FB_F/F_A/A_AT" depart="452" />
    <vehicle id="right_1139" type="medium_car" route="AL_A/A_B/B_C/C_CR" depart="456" />
    <vehicle id="south_1142" type="medium_car" route="DB_D/D_C/C_CT" depart="457" />
    <vehicle id="left_1153" type="slow_car" route="DR_D/D_E/E_F/F_FL" depart="462" />
    <vehicle id="north_1160" type="medium_car" route="CT_C/C_D/D_DB" depart="465" />
    <vehicle id="south_1167" type="medium_car" route="DB_D/D_C/C_CT" depart="468" />
    <vehicle id="rigth_1172" type="slow_car" route="FL_F/F_E/E_D/D_DR" depart="470" />
    <vehicle id="rigth_1173" type="medium_car" route="FL_F/F_E/E_D/D_DR" depart="470" />
    <vehicle id="right_1180" type="medium_car" route="AL_A/A_B/B_C/C_CR" depart="473" />
    <vehicle id="left_1185" type="slow_car" route="CR_C/C_B/B_A/A_AL" depart="475" />
    <vehicle id="right_1202" type="medium_car" route="AL_A/A_B/B_C/C_CR" depart="483" />
    <vehicle id="north_1213" type="slow_car" route="CT_C/C_D/D_DB" depart="488" />
    <vehicle id="south_1214" type="slow_car" route="FB_F/F_A/A_AT" depart="488" />
    <vehicle id="left_1217" type="slow_motorcycle" route="BT_B/B_A/A_AL" depart="488" />
    <vehicle id="south_1218" type="medium_car" route="DB_D/D_C/C_CT" depart="489" />
    <vehicle id="left_1223" type="slow_motorcycle" route="BT_B/B_A/A_AL" depart="490" />
    <vehicle id="rigth_1226" type="medium_car" route="FL_F/F_E/E_D/D_DR" depart="492" />
    <vehicle id="left_1229" type="fast_car" route="CR_C/C_B/B_A/A_AL" depart="493" />
    <vehicle id="north_1234" type="slow_car" route="AT_A/A_F/F_FB" depart="495" />
    <vehicle id="south_1245" type="slow_car" route="FB_F/F_A/A_AT" depart="500" />
    <vehicle id="left_1248" type="slow_car" route="CR_C/C_B/B_A/A_AL" depart="501" />
    <vehicle id="left_1251" type="fast_car" route="CR_C/C_B/B_A/A_AL" depart="502" />
    <vehicle id="right_1253" type="slow_motorcycle" route="AL_A/A_F/F_FB" depart="502" />
    <vehicle id="rigth_1256" type="slow_car" route="FL_F/F_E/E_D/D_DR" depart="504" />
    <vehicle id="south_1257" type="medium_car" route="FB_F/F_A/A_AT" depart="504" />
    <vehicle id="south_1266" type="slow_car" route="FB_F/F_A/A_AT" depart="508" />
    <vehicle id="right_1269" type="fast_car" route="AL_A/A_B/B_C/C_CR" depart="509" />
    <vehicle id="left_1272" type="slow_car" route="CR_C/C_B/B_A/A_AL" depart="510" />
    <vehicle id="rigth_1276" type="slow_bus" route="FL_F/F_E/E_D/D_DR" depart="511" />
    <vehicle id="left_1278" type="fast_car" route="CR_C/C_B/B_A/A_AL" depart="512" />
    <vehicle id="rigth_1283" type="slow_motorcycle" route="EB_E/E_D/D_DB" depart="513" />
    <vehicle id="north_1284" type="slow_car" route="CT_C/C_D/D_DB" depart="514" />
    <vehicle id="rigth_1287" type="medium_car" route="FL_F/F_E/E_D/D_DR" depart="515" />
    <vehicle id="rigth_1290" type="slow_car" route="FL_F/F_E/E_D/D_DR" depart="516" />
    <vehicle id="north_1297" type="slow_car" route="CT_C/C_D/D_DB" depart="519" />
    <vehicle id="left_1300" type="medium_car" route="DR_D/D_E/E_F/F_FL" depart="520" />
    <vehicle id="left_1313" type="fast_car" route="CR_C/C_B/B_A/A_AL" depart="526" />
    <vehicle id="north_1318" type="slow_car" route="CT_C/C_D/D_DB" depart="528" />
    <vehicle id="right_1321" type="fast_car" route="AL_A/A_B/B_C/C_CR" depart="529" />
    <vehicle id="north_1326" type="slow_car" route="AT_A/A_F/F_FB" depart="531" />
    <vehicle id="rigth_1333" type="medium_car" route="FL_F/F_E/E_D/D_DR" depart="534" />
    <vehicle id="left_1335" type="slow_bus" route="CR_C/C_B/B_A/A_AL" depart="534" />
    <vehicle id="left_1339" type="slow_car" route="DR_D/D_E/E_F/F_FL" depart="536" />
    <vehicle id="left_1344" type="medium_car" route="CR_C/C_B/B_A/A_AL" depart="538" />
    <vehicle id="left_1347" type="slow_car" route="DR_D/D_E/E_F/F_FL" depart="539" />
    <vehicle id="left_1354" type="slow_car" route="CR_C/C_B/B_A/A_AL" depart="542" />
    <vehicle id="left_1356" type="slow_bus" route="DR_D/D_E/E_F/F_FL" depart="542" />
    <vehicle id="right_1362" type="slow_car" route="AL_A/A_B/B_C/C_CR" depart="545" />
    <vehicle id="right_1371" type="slow_car" route="AL_A/A_B/B_C/C_CR" depart="549" />
    <vehicle id="left_1381" type="slow_bus" route="CR_C/C_B/B_A/A_AL" depart="553" />
    <vehicle id="rigth_1383" type="slow_motorcycle" route="EB_E/E_D/D_DB" depart="553" />
    <vehicle id="left_1388" type="fast_car" route="CR_C/C_B/B_A/A_AL" depart="556" />
    <vehicle id="south_1399" type="slow_car" route="FB_F/F_A/A_AT" depart="561" />
    <vehicle id="left_1400" type="medium_car" route="CR_C/C_B/B_A/A_AL" depart="561" />
    <vehicle id="rigth_1401" type="medium_car" route="FL_F/F_E/E_D/D_DR" depart="561" />
    <vehicle id="right_1406" type="slow_car" route="AL_A/A_B/B_C/C_CR" depart="563" />
    <vehicle id="north_1409" type="slow_car" route="AT_A/A_F/F_FB" depart="564" />
    <vehicle id="left_1411" type="slow_bus" route="CR_C/C_B/B_A/A_AL" depart="564" />
    <vehicle id="north_1421" type="medium_car" route="CT_C/C_D/D_DB" depart="569" />
    <vehicle id="left_1422" type="fast_car" route="CR_C/C_B/B_A/A_AL" depart="569" />
    <vehicle id="right_1425" type="medium_car" route="AL_A/A_B/B_C/C_CR" depart="570" />
    <vehicle id="south_1430" type="slow_car" route="DB_D/D_C/C_CT" depart="572" />
    <vehicle id="left_1431" type="fast_car" route="CR_C/C_B/B_A/A_AL" depart="572" />
    <vehicle id="left_1436" type="medium_car" route="CR_C/C_B/B_A/A_AL" depart="574" />
    <vehicle id="left_1443" type="medium_car" route="DR_D/D_E/E_F/F_FL" depart="577" />
    <vehicle id="north_1444" type="medium_car" route="CT_C/C_D/D_DB" depart="577" />
    <vehicle id="right_1449" type="medium_car" route="AL_A/A_B/B_C/C_CR" depart="579" />
    <vehicle id="rigth_1462" type="slow_car" route="FL_F/F_E/E_D/D_DR" depart="585" />
    <vehicle id="left_1465" type="slow_motorcycle" route="BT_B/B_A/A_AL" depart="585" />
    <vehicle id="left_1466" type="medium_car" route="CR_C/C_B/B_A/A_AL" depart="586" />