<routes>
    <vType id="slow_car" accel="1" decel="6" length="6" minGap="0.2" maxSpeed="30.0" sigma="0.0" color="0,1,0"/>
    <vType id="medium_car" accel="2" decel="8" length="5" minGap="0.2" maxSpeed="40.0" sigma="0.0" color="0,1,1"/>
    <vType id="fast_car" accel="3" decel="9" length="3" minGap="0.2" maxSpeed="60.0" sigma="0.0" color="1,0,0"/>
 
    <vType id="fast_bus" accel="3" decel="6" length="10" minGap="0.2" maxSpeed="30.0" sigma="0.0" color="1,0,0" guiShape="bus"/>
    <vType id="slow_bus" accel="1" decel="8" length="10" minGap="0.2" maxSpeed="20.0" sigma="0.0" color="0,1,0" guiShape="bus"/>

    <vType id="slow_motorcycle" accel="2" decel="5" length="3" minGap="0.2" maxSpeed="30.0" sigma="0.0" color="255,255,255" guiShape="motorcycle"/>
    <vType id="fast_motorcycle" accel="3" decel="4" length="3" minGap="0.2" maxSpeed="60.0" sigma="0.0" color="1,0,0" guiShape="motorcycle"/>

   <route id="AL_A/A_B/B_C/C_CR" edges="AL_A A_B B_C C_CR"/>
   <route id="CR_C/C_B/B_A/A_AL" edges="CR_C C_B B_A A_AL"/>
   <route id="DR_D/D_E/E_F/F_FL" edges="DR_D D_E E_F F_FL"/>
   <route id="FL_F/F_E/E_D/D_DR" edges="FL_F F_E E_D D_DR"/>

   <route id="FB_F/F_A/A_AT" edges="FB_F F_A A_AT"/>
   <route id="AT_A/A_F/F_FB" edges="AT_A A_F F_FB"/>
   <route id="CT_C/C_D/D_DB" edges="CT_C C_D D_DB"/>
   <route id="DB_D/D_C/C_CT" edges="DB_D D_C C_CT"/>

   <route id="FB_F/F_E/E_EB" edges="FB_F F_E E_EB"/>
   <route id="FB_F/F_E/E_D/D_DB" edges="FB_F F_E E_D D_DB"/>
   <route id="EB_E/E_D/D_DB" edges="EB_E E_D D_DB"/>
   <route id="BT_B/B_A/A_AT" edges="BT_B B_A A_AT"/>
   <route id="BT_B/B_A/A_AL" edges="BT_B B_A A_AL"/>
   <route id="BT_B/B_C/C_CT" edges="BT_B B_C C_CT"/>
   <route id="BT_B/B_C/C_CR" edges="BT_B B_C C_CR"/>

     <route id="AT_A/A_F/F_FL" edges="AL_A A_F F_FL"/>
     <route id="AT_A/A_F/F_E/E_EB" edges="AT_A A_F F_E E_EB"/>
     <route id="AT_A/A_F/F_E/E_D/D_DB" edges="AT_A A_F F_E E_D D_DB"/>
     <route id="AT_A/A_F/F_E/E_D/D_DR" edges="AT_A A_F F_E E_D D_DB"/>
     <route id="AT_A/A_B/B_C/C_D/D_DB" edges="AL_A A_B B_C C_D D_DB"/>
     <route id="AT_A/A_B/B_C/C_D/D_DR" edges="AL_A A_B B_C C_D D_DR"/>


     <route id="CT_C/C_D/D_E/E_F/F_FL" edges="CT_C C_D D_E E_F F_FL"/>
     <route id="CT_C/C_D/D_E/E_F/F_FB" edges="CT_C C_D D_E E_F F_FB"/>
     <route id="CT_C/C_D/D_DR" edges="CT_C C_D D_DR"/>
     <route id="CT_C/C_B/B_BT" edges="CT_C C_B B_BT"/>
     <route id="CT_C/C_B/B_A/A_AL" edges="CT_C C_B B_A A_AL"/>
     <route id="CT_C/C_B/B_A/A_AT" edges="CT_C C_B B_A A_AT"/>



     <route id="FB_F/F_A/A_B/B_C/C_CR" edges="FB_F F_A A_B B_C C_CR"/>
     <route id="FB_F/F_A/A_B/B_C/C_D/D_DB" edges="FB_F F_A A_B B_C C_CR C_D D_DB"/>
     <route id="FB_F/F_A/A_B/B_C/C_D/D_DR" edges="FB_F F_A A_B B_C C_CR C_D D_DR"/>
     <route id="FB_F/F_E/E_D/D_C/C_CR" edges="FB_F F_E E_D D_C C_CR"/>
     <route id="FB_F/F_E/E_D/D_C/C_CT" edges="FB_F F_E E_D D_C C_CT"/>


     <route id="AL_A/A_B/B_C/C_D/D_DR" edges="AL_A A_B B_C C_D D_DB"/>
     <route id="AL_A/A_B/B_C/C_D/D_DB" edges="AL_A A_B B_C C_D D_DB"/>
     <route id="AL_A/A_F/F_FB" edges="AL_A A_F F_FB"/>
     <route id="AL_A/A_F/F_FL" edges="AL_A A_F F_FL"/>
     <route id="AL_A/A_F/F_E/E_EB" edges="AL_A A_F F_E E_EB"/>
     <route id="AL_A/A_F/F_E/E_D/D_DR" edges="AL_A A_F F_E E_D D_DR"/>
     <route id="AL_A/A_F/F_E/E_D/D_DB" edges="AL_A A_F F_E E_D D_DB"/>

     <route id="CR_C/C_CT" edges="CR_C C_CT"/>
     <route id="CR_C/C_B/B_BT" edges="CR_C C_B B_BT"/>
     <route id="CR_C/C_B/B_A/A_AT" edges="CR_C C_B B_A A_AT"/>

     <route id="DR_D/D_DB" edges="DR_D D_DB"/>
     <route id="DR_D/D_C/C_CR" edges="DR_D D_C C_CR"/>
     <route id="DR_D/D_C/C_CT" edges="DR_D D_C C_CT"/>
     <route id="DR_D/D_E/E_F/F_A/A_AT" edges="DR_D D_E E_F F_A A_AT"/>

     <route id="FL_F/F_E/E_EB" edges="FL_F F_E E_EB"/>
     <route id="FL_F/F_E/E_D/D_DB" edges="FL_F F_E E_D D_DB"/>
     <route id="FL_F/F_FB" edges="FL_F F_FB"/>
     <route id="FL_F/F_A/A_AT" edges="FL_F F_A A_AT"/>

        
    <vehicle id="right_0" type="slow_car" route="CR_C/C_B/B_A/A_AL" depart="0" />
    <vehicle id="down_1" type="slow_car" route="DR_D/D_E/E_F/F_FL" depart="0" color="1,0,0"/>
    <vehicle id="right_2" type="slow_car" route="CR_C/C_B/B_A/A_AL" depart="1" />
    <vehicle id="right_3" type="slow_car" route="DB_D/D_C/C_CT" depart="1" />
    <vehicle id="right_4" type="slow_car" route="FB_F/F_A/A_AT" depart="2" />
    <vehicle id="right_5" type="slow_car" route="CR_C/C_B/B_A/A_AL" depart="5" />
    <vehicle id="right_6" type="slow_car" route="FB_F/F_A/A_AT" depart="8" />
    <vehicle id="right_7" type="slow_car" route="AL_A/A_B/B_C/C_CR" depart="11" />
    <vehicle id="right_8" type="slow_car" route="CR_C/C_B/B_A/A_AL" depart="11" />
    <vehicle id="left_9" type="slow_car" route="FL_F/F_E/E_D/D_DR" depart="11" />
    <vehicle id="right_10" type="slow_car" route="DB_D/D_C/C_CT" depart="12" />
    <vehicle id="right_11" type="slow_car" route="DB_D/D_C/C_CT" depart="15" />
    <vehicle id="left_12" type="slow_car" route="FL_F/F_E/E_D/D_DR" depart="15" />
    <vehicle id="left_13" type="slow_car" route="FL_F/F_E/E_D/D_DR" depart="16" />
    <vehicle id="right_14" type="slow_car" route="AL_A/A_B/B_C/C_CR" depart="17" />
    <vehicle id="right_15" type="slow_car" route="AL_A/A_B/B_C/C_CR" depart="20" />
    <vehicle id="right_16" type="slow_car" route="AL_A/A_B/B_C/C_CR" depart="22" />
    <vehicle id="down_17" type="slow_car" route="DR_D/D_E/E_F/F_FL" depart="22" color="1,0,0"/>
    <vehicle id="down_18" type="slow_car" route="DR_D/D_E/E_F/F_FL" depart="25" color="1,0,0"/>
    <vehicle id="right_19" type="slow_car" route="AL_A/A_B/B_C/C_CR" depart="28" />
    <vehicle id="left_20" type="slow_car" route="FL_F/F_E/E_D/D_DR" depart="28" />
    <vehicle id="right_21" type="slow_car" route="AL_A/A_B/B_C/C_CR" depart="32" />
    <vehicle id="right_22" type="slow_car" route="CT_C/C_D/D_DB" depart="33" />
    <vehicle id="down_23" type="slow_car" route="DR_D/D_E/E_F/F_FL" depart="35" color="1,0,0"/>
    <vehicle id="right_24" type="slow_car" route="AT_A/A_F/F_FB" depart="36" />
    <vehicle id="right_25" type="slow_car" route="CR_C/C_B/B_A/A_AL" depart="37" />
    <vehicle id="right_26" type="slow_car" route="DB_D/D_C/C_CT" depart="40" />
    <vehicle id="left_27" type="slow_car" route="FL_F/F_E/E_D/D_DR" depart="42" />
    <vehicle id="right_28" type="slow_car" route="AL_A/A_B/B_C/C_CR" depart="46" />
    <vehicle id="down_29" type="slow_car" route="DR_D/D_E/E_F/F_FL" depart="46" color="1,0,0"/>
    <vehicle id="right_30" type="slow_car" route="AT_A/A_F/F_FB" depart="49" />
    <vehicle id="left_31" type="slow_car" route="FL_F/F_E/E_D/D_DR" depart="50" />
    <vehicle id="down_32" type="slow_car" route="DR_D/D_E/E_F/F_FL" depart="51" color="1,0,0"/>
    <vehicle id="right_33" type="slow_car" route="FB_F/F_A/A_AT" depart="53" />
    <vehicle id="right_34" type="slow_car" route="CR_C/C_B/B_A/A_AL" depart="60" />
    <vehicle id="right_35" type="slow_car" route="CT_C/C_D/D_DB" depart="61" />
    <vehicle id="right_36" type="slow_car" route="CT_C/C_D/D_DB" depart="62" />
    <vehicle id="right_37" type="slow_car" route="AL_A/A_B/B_C/C_CR" depart="63" />
    <vehicle id="left_38" type="slow_car" route="FL_F/F_E/E_D/D_DR" depart="64" />
    <vehicle id="right_39" type="slow_car" route="AL_A/A_B/B_C/C_CR" depart="66" />
    <vehicle id="down_40" type="slow_car" route="DR_D/D_E/E_F/F_FL" depart="67" color="1,0,0"/>
    <vehicle id="down_41" type="slow_car" route="DR_D/D_E/E_F/F_FL" depart="72" color="1,0,0"/>
    <vehicle id="right_42" type="slow_car" route="CT_C/C_D/D_DB" depart="73" />
    <vehicle id="left_43" type="slow_car" route="FL_F/F_E/E_D/D_DR" depart="74" />
    <vehicle id="right_44" type="slow_car" route="AL_A/A_B/B_C/C_CR" depart="75" />
    <vehicle id="right_45" type="slow_car" route="AL_A/A_B/B_C/C_CR" depart="76" />
    <vehicle id="right_46" type="slow_car" route="CT_C/C_D/D_DB" depart="79" />
    <vehicle id="right_47" type="slow_car" route="AL_A/A_B/B_C/C_CR" depart="82" />
    <vehicle id="right_48" type="slow_car" route="DB_D/D_C/C_CT" depart="85" />
    <vehicle id="down_49" type="slow_car" route="DR_D/D_E/E_F/F_FL" depart="87" color="1,0,0"/>
    <vehicle id="right_50" type="slow_car" route="AL_A/A_B/B_C/C_CR" depart="90" />
    <vehicle id="right_51" type="slow_car" route="AL_A/A_B/B_C/C_CR" depart="91" />
    <vehicle id="down_52" type="slow_car" route="DR_D/D_E/E_F/F_FL" depart="96" color="1,0,0"/>
    <vehicle id="right_53" type="slow_car" route="CR_C/C_B/B_A/A_AL" depart="102" />
    <vehicle id="right_54" type="slow_car" route="AL_A/A_B/B_C/C_CR" depart="108" />
    <vehicle id="right_55" type="slow_car" route="CR_C/C_B/B_A/A_AL" depart="109" />
    <vehicle id="right_56" type="slow_car" route="AT_A/A_F/F_FB" depart="110" />
    <vehicle id="right_57" type="slow_car" route="CR_C/C_B/B_A/A_AL" depart="116" />
    <vehicle id="right_58" type="slow_car" route="DB_D/D_C/C_CT" depart="119" />
    <vehicle id="left_59" type="slow_car" route="FL_F/F_E/E_D/D_DR" depart="120" />
    <vehicle id="down_60" type="slow_car" route="DR_D/D_E/E_F/F_FL" depart="123" color="1,0,0"/>
    <vehicle id="right_61" type="slow_car" route="AL_A/A_B/B_C/C_CR" depart="125" />
    <vehicle id="right_62" type="slow_car" route="CT_C/C_D/D_DB" depart="126" />
    <vehicle id="right_63" type="slow_car" route="AT_A/A_F/F_FB" depart="128" />
    <vehicle id="right_64" type="slow_car" route="CR_C/C_B/B_A/A_AL" depart="129" />
    <vehicle id="right_65" type="slow_car" route="AT_A/A_F/F_FB" depart="129" />
    <vehicle id="down_66" type="slow_car" route="DR_D/D_E/E_F/F_FL" depart="129" color="1,0,0"/>
    <vehicle id="right_67" type="slow_car" route="CR_C/C_B/B_A/A_AL" depart="131" />
    <vehicle id="down_68" type="slow_car" route="DR_D/D_E/E_F/F_FL" depart="131" color="1,0,0"/>
    <vehicle id="left_69" type="slow_car" route="FL_F/F_E/E_D/D_DR" depart="132" />
    <vehicle id="right_70" type="slow_car" route="AL_A/A_B/B_C/C_CR" depart="133" />
    <vehicle id="right_71" type="slow_car" route="CT_C/C_D/D_DB" depart="140" />
    <vehicle id="right_72" type="slow_car" route="CT_C/C_D/D_DB" depart="141" />
    <vehicle id="right_73" type="slow_car" route="FB_F/F_A/A_AT" depart="142" />
    <vehicle id="right_74" type="slow_car" route="AL_A/A_B/B_C/C_CR" depart="146" />
    <vehicle id="left_75" type="slow_car" route="FL_F/F_E/E_D/D_DR" depart="146" />
    <vehicle id="left_76" type="slow_car" route="FL_F/F_E/E_D/D_DR" depart="147" />
    <vehicle id="right_77" type="slow_car" route="AL_A/A_B/B_C/C_CR" depart="148" />
    <vehicle id="right_78" type="slow_car" route="CR_C/C_B/B_A/A_AL" depart="148" />
    <vehicle id="right_79" type="slow_car" route="CR_C/C_B/B_A/A_AL" depart="149" />
    <vehicle id="down_80" type="slow_car" route="DR_D/D_E/E_F/F_FL" depart="149" color="1,0,0"/>
    <vehicle id="right_81" type="slow_car" route="AL_A/A_B/B_C/C_CR" depart="155" />
    <vehicle id="left_82" type="slow_car" route="FL_F/F_E/E_D/D_DR" depart="155" />
    <vehicle id="right_83" type="slow_car" route="AL_A/A_B/B_C/C_CR" depart="160" />
    <vehicle id="right_84" type="slow_car" route="CT_C/C_D/D_DB" depart="171" />
    <vehicle id="left_85" type="slow_car" route="FL_F/F_E/E_D/D_DR" depart="171" />
    <vehicle id="right_86" type="slow_car" route="FB_F/F_A/A_AT" depart="172" />
    <vehicle id="down_87" type="slow_car" route="DR_D/D_E/E_F/F_FL" depart="173" color="1,0,0"/>
    <vehicle id="right_88" type="slow_car" route="AL_A/A_B/B_C/C_CR" depart="174" />
    <vehicle id="right_89" type="slow_car" route="CR_C/C_B/B_A/A_AL" depart="175" />
    <vehicle id="right_90" type="slow_car" route="AL_A/A_B/B_C/C_CR" depart="176" />
    <vehicle id="right_91" type="slow_car" route="CR_C/C_B/B_A/A_AL" depart="177" />
    <vehicle id="right_92" type="slow_car" route="CT_C/C_D/D_DB" depart="178" />
    <vehicle id="left_93" type="slow_car" route="FL_F/F_E/E_D/D_DR" depart="180" />
    <vehicle id="right_94" type="slow_car" route="CR_C/C_B/B_A/A_AL" depart="186" />
    <vehicle id="right_95" type="slow_car" route="AL_A/A_B/B_C/C_CR" depart="187" />
    <vehicle id="right_96" type="slow_car" route="CR_C/C_B/B_A/A_AL" depart="188" />
    <vehicle id="down_97" type="slow_car" route="DR_D/D_E/E_F/F_FL" depart="192" color="1,0,0"/>
    <vehicle id="right_98" type="slow_car" route="DB_D/D_C/C_CT" depart="194" />
    <vehicle id="right_99" type="slow_car" route="CR_C/C_B/B_A/A_AL" depart="196" />
    <vehicle id="left_100" type="slow_car" route="FL_F/F_E/E_D/D_DR" depart="197" />
    <vehicle id="right_101" type="slow_car" route="AL_A/A_B/B_C/C_CR" depart="201" />
    <vehicle id="right_102" type="slow_car" route="CR_C/C_B/B_A/A_AL" depart="201" />
    <vehicle id="right_103" type="slow_car" route="AL_A/A_B/B_C/C_CR" depart="203" />
    <vehicle id="right_104" type="slow_car" route="CR_C/C_B/B_A/A_AL" depart="203" />
    <vehicle id="right_105" type="slow_car" route="CR_C/C_B/B_A/A_AL" depart="207" />
    <vehicle id="down_106" type="slow_car" route="DR_D/D_E/E_F/F_FL" depart="207" color="1,0,0"/>
    <vehicle id="down_107" type="slow_car" route="DR_D/D_E/E_F/F_FL" depart="209" color="1,0,0"/>
    <vehicle id="down_108" type="slow_car" route="DR_D/D_E/E_F/F_FL" depart="211" color="1,0,0"/>
    <vehicle id="right_109" type="slow_car" route="CR_C/C_B/B_A/A_AL" depart="215" />
    <vehicle id="down_110" type="slow_car" route="DR_D/D_E/E_F/F_FL" depart="216" color="1,0,0"/>
    <vehicle id="right_111" type="slow_car" route="AT_A/A_F/F_FB" depart="217" />
    <vehicle id="down_112" type="slow_car" route="DR_D/D_E/E_F/F_FL" depart="225" color="1,0,0"/>
    <vehicle id="right_113" type="slow_car" route="DB_D/D_C/C_CT" depart="229" />
    <vehicle id="left_114" type="slow_car" route="FL_F/F_E/E_D/D_DR" depart="232" />
    <vehicle id="right_115" type="slow_car" route="AT_A/A_F/F_FB" depart="234" />
    <vehicle id="down_116" type="slow_car" route="DR_D/D_E/E_F/F_FL" depart="237" color="1,0,0"/>
    <vehicle id="left_117" type="slow_car" route="FL_F/F_E/E_D/D_DR" depart="241" />
    <vehicle id="right_118" type="slow_car" route="CR_C/C_B/B_A/A_AL" depart="242" />
    <vehicle id="right_119" type="slow_car" route="FB_F/F_A/A_AT" depart="242" />
    <vehicle id="right_120" type="slow_car" route="CR_C/C_B/B_A/A_AL" depart="245" />
    <vehicle id="right_121" type="slow_car" route="AT_A/A_F/F_FB" depart="245" />
    <vehicle id="right_122" type="slow_car" route="AT_A/A_F/F_FB" depart="247" />
    <vehicle id="right_123" type="slow_car" route="AL_A/A_B/B_C/C_CR" depart="248" />
    <vehicle id="left_124" type="slow_car" route="FL_F/F_E/E_D/D_DR" depart="248" />
    <vehicle id="right_125" type="slow_car" route="AT_A/A_F/F_FB" depart="256" />
    <vehicle id="left_126" type="slow_car" route="FL_F/F_E/E_D/D_DR" depart="262" />
    <vehicle id="down_127" type="slow_car" route="DR_D/D_E/E_F/F_FL" depart="262" color="1,0,0"/>
    <vehicle id="right_128" type="slow_car" route="AL_A/A_B/B_C/C_CR" depart="264" />
    <vehicle id="right_129" type="slow_car" route="AL_A/A_B/B_C/C_CR" depart="265" />
    <vehicle id="right_130" type="slow_car" route="AT_A/A_F/F_FB" depart="265" />
    <vehicle id="left_131" type="slow_car" route="FL_F/F_E/E_D/D_DR" depart="265" />
    <vehicle id="right_132" type="slow_car" route="AL_A/A_B/B_C/C_CR" depart="269" />
    <vehicle id="right_133" type="slow_car" route="CR_C/C_B/B_A/A_AL" depart="269" />
    <vehicle id="right_134" type="slow_car" route="AL_A/A_B/B_C/C_CR" depart="270" />
    <vehicle id="down_135" type="slow_car" route="DR_D/D_E/E_F/F_FL" depart="270" color="1,0,0"/>
    <vehicle id="right_136" type="slow_car" route="AL_A/A_B/B_C/C_CR" depart="271" />
    <vehicle id="right_137" type="slow_car" route="CR_C/C_B/B_A/A_AL" depart="274" />
    <vehicle id="right_138" type="slow_car" route="CR_C/C_B/B_A/A_AL" depart="275" />
    <vehicle id="left_139" type="slow_car" route="FL_F/F_E/E_D/D_DR" depart="276" />
    <vehicle id="right_140" type="slow_car" route="CT_C/C_D/D_DB" depart="277" />
    <vehicle id="left_141" type="slow_car" route="FL_F/F_E/E_D/D_DR" depart="278" />
    <vehicle id="right_142" type="slow_car" route="AL_A/A_B/B_C/C_CR" depart="279" />
    <vehicle id="left_143" type="slow_car" route="FL_F/F_E/E_D/D_DR" depart="279" />
    <vehicle id="right_144" type="slow_car" route="AL_A/A_B/B_C/C_CR" depart="281" />
    <vehicle id="right_145" type="slow_car" route="CR_C/C_B/B_A/A_AL" depart="288" />
    <vehicle id="left_146" type="slow_car" route="FL_F/F_E/E_D/D_DR" depart="289" />
    <vehicle id="right_147" type="slow_car" route="AT_A/A_F/F_FB" depart="291" />
    <vehicle id="left_148" type="slow_car" route="FL_F/F_E/E_D/D_DR" depart="292" />
    <vehicle id="down_149" type="slow_car" route="DR_D/D_E/E_F/F_FL" depart="296" color="1,0,0"/>
    <vehicle id="right_150" type="slow_car" route="AL_A/A_B/B_C/C_CR" depart="298" />
    <vehicle id="right_151" type="slow_car" route="AL_A/A_B/B_C/C_CR" depart="303" />
    <vehicle id="right_152" type="slow_car" route="AT_A/A_F/F_FB" depart="303" />
    <vehicle id="right_153" type="slow_car" route="CT_C/C_D/D_DB" depart="304" />
    <vehicle id="left_154" type="slow_car" route="FL_F/F_E/E_D/D_DR" depart="309" />
    <vehicle id="right_155" type="slow_car" route="DB_D/D_C/C_CT" depart="314" />
    <vehicle id="right_156" type="slow_car" route="AL_A/A_B/B_C/C_CR" depart="317" />
    <vehicle id="down_157" type="slow_car" route="DR_D/D_E/E_F/F_FL" depart="317" color="1,0,0"/>
    <vehicle id="right_158" type="slow_car" route="FB_F/F_A/A_AT" depart="320" />
    <vehicle id="right_159" type="slow_car" route="AL_A/A_B/B_C/C_CR" depart="321" />
    <vehicle id="left_160" type="slow_car" route="FL_F/F_E/E_D/D_DR" depart="321" />
    <vehicle id="right_161" type="slow_car" route="FB_F/F_A/A_AT" depart="323" />
    <vehicle id="right_162" type="slow_car" route="CT_C/C_D/D_DB" depart="329" />
    <vehicle id="left_163" type="slow_car" route="FL_F/F_E/E_D/D_DR" depart="329" />
    <vehicle id="right_164" type="slow_car" route="AL_A/A_B/B_C/C_CR" depart="330" />
    <vehicle id="right_165" type="slow_car" route="CR_C/C_B/B_A/A_AL" depart="330" />
    <vehicle id="right_166" type="slow_car" route="AL_A/A_B/B_C/C_CR" depart="331" />
    <vehicle id="right_167" type="slow_car" route="CR_C/C_B/B_A/A_AL" depart="333" />
    <vehicle id="down_168" type="slow_car" route="DR_D/D_E/E_F/F_FL" depart="335" color="1,0,0"/>
    <vehicle id="right_169" type="slow_car" route="CR_C/C_B/B_A/A_AL" depart="338" />
    <vehicle id="right_170" type="slow_car" route="CR_C/C_B/B_A/A_AL" depart="340" />
    <vehicle id="right_171" type="slow_car" route="CR_C/C_B/B_A/A_AL" depart="341" />
    <vehicle id="down_172" type="slow_car" route="DR_D/D_E/E_F/F_FL" depart="341" color="1,0,0"/>
    <vehicle id="right_173" type="slow_car" route="DB_D/D_C/C_CT" depart="343" />
    <vehicle id="right_174" type="slow_car" route="FB_F/F_A/A_AT" depart="344" />
    <vehicle id="right_175" type="slow_car" route="CR_C/C_B/B_A/A_AL" depart="347" />
    <vehicle id="down_176" type="slow_car" route="DR_D/D_E/E_F/F_FL" depart="350" color="1,0,0"/>
    <vehicle id="right_177" type="slow_car" route="CR_C/C_B/B_A/A_AL" depart="352" />
    <vehicle id="right_178" type="slow_car" route="CR_C/C_B/B_A/A_AL" depart="353" />
    <vehicle id="right_179" type="slow_car" route="DB_D/D_C/C_CT" depart="354" />
    <vehicle id="right_180" type="slow_car" route="AT_A/A_F/F_FB" depart="356" />
    <vehicle id="right_181" type="slow_car" route="CR_C/C_B/B_A/A_AL" depart="357" />
    <vehicle id="down_182" type="slow_car" route="DR_D/D_E/E_F/F_FL" depart="357" color="1,0,0"/>
    <vehicle id="right_183" type="slow_car" route="AL_A/A_B/B_C/C_CR" depart="362" />
    <vehicle id="right_184" type="slow_car" route="CT_C/C_D/D_DB" depart="363" />
    <vehicle id="right_185" type="slow_car" route="AL_A/A_B/B_C/C_CR" depart="365" />
    <vehicle id="right_186" type="slow_car" route="DB_D/D_C/C_CT" depart="365" />
    <vehicle id="right_187" type="slow_car" route="DB_D/D_C/C_CT" depart="366" />
    <vehicle id="down_188" type="slow_car" route="DR_D/D_E/E_F/F_FL" depart="370" color="1,0,0"/>
    <vehicle id="left_189" type="slow_car" route="FL_F/F_E/E_D/D_DR" depart="373" />
    <vehicle id="right_190" type="slow_car" route="CR_C/C_B/B_A/A_AL" depart="376" />
    <vehicle id="down_191" type="slow_car" route="DR_D/D_E/E_F/F_FL" depart="376" color="1,0,0"/>
    <vehicle id="right_192" type="slow_car" route="FB_F/F_A/A_AT" depart="377" />
    <vehicle id="right_193" type="slow_car" route="CR_C/C_B/B_A/A_AL" depart="379" />
    <vehicle id="right_194" type="slow_car" route="FB_F/F_A/A_AT" depart="380" />
    <vehicle id="left_195" type="slow_car" route="FL_F/F_E/E_D/D_DR" depart="380" />
    <vehicle id="left_196" type="slow_car" route="FL_F/F_E/E_D/D_DR" depart="382" />
    <vehicle id="right_197" type="slow_car" route="CR_C/C_B/B_A/A_AL" depart="383" />
    <vehicle id="down_198" type="slow_car" route="DR_D/D_E/E_F/F_FL" depart="384" color="1,0,0"/>
    <vehicle id="down_199" type="slow_car" route="DR_D/D_E/E_F/F_FL" depart="387" color="1,0,0"/>
    <vehicle id="right_200" type="slow_car" route="CR_C/C_B/B_A/A_AL" depart="391" />
    <vehicle id="left_201" type="slow_car" route="FL_F/F_E/E_D/D_DR" depart="391" />
    <vehicle id="right_202" type="slow_car" route="CT_C/C_D/D_DB" depart="392" />
    <vehicle id="right_203" type="slow_car" route="AT_A/A_F/F_FB" depart="396" />
    <vehicle id="down_204" type="slow_car" route="DR_D/D_E/E_F/F_FL" depart="397" color="1,0,0"/>
    <vehicle id="right_205" type="slow_car" route="DB_D/D_C/C_CT" depart="400" />
    <vehicle id="down_206" type="slow_car" route="DR_D/D_E/E_F/F_FL" depart="400" color="1,0,0"/>
    <vehicle id="right_207" type="slow_car" route="FB_F/F_A/A_AT" depart="401" />
    <vehicle id="right_208" type="slow_car" route="AL_A/A_B/B_C/C_CR" depart="407" />
    <vehicle id="down_209" type="slow_car" route="DR_D/D_E/E_F/F_FL" depart="408" color="1,0,0"/>
    <vehicle id="down_210" type="slow_car" route="DR_D/D_E/E_F/F_FL" depart="409" color="1,0,0"/>
    <vehicle id="right_211" type="slow_car" route="CR_C/C_B/B_A/A_AL" depart="414" />
    <vehicle id="right_212" type="slow_car" route="AL_A/A_B/B_C/C_CR" depart="415" />
    <vehicle id="left_213" type="slow_car" route="FL_F/F_E/E_D/D_DR" depart="415" />
    <vehicle id="right_214" type="slow_car" route="CR_C/C_B/B_A/A_AL" depart="416" />
    <vehicle id="right_215" type="slow_car" route="CR_C/C_B/B_A/A_AL" depart="421" />
    <vehicle id="right_216" type="slow_car" route="CT_C/C_D/D_DB" depart="421" />
    <vehicle id="right_217" type="slow_car" route="CR_C/C_B/B_A/A_AL" depart="425" />
    <vehicle id="left_218" type="slow_car" route="FL_F/F_E/E_D/D_DR" depart="425" />
    <vehicle id="down_219" type="slow_car" route="DR_D/D_E/E_F/F_FL" depart="427" color="1,0,0"/>
    <vehicle id="left_220" type="slow_car" route="FL_F/F_E/E_D/D_DR" depart="428" />
    <vehicle id="right_221" type="slow_car" route="CT_C/C_D/D_DB" depart="432" />
    <vehicle id="right_222" type="slow_car" route="CR_C/C_B/B_A/A_AL" depart="437" />
    <vehicle id="right_223" type="slow_car" route="CT_C/C_D/D_DB" depart="439" />
    <vehicle id="left_224" type="slow_car" route="FL_F/F_E/E_D/D_DR" depart="439" />
    <vehicle id="down_225" type="slow_car" route="DR_D/D_E/E_F/F_FL" depart="440" color="1,0,0"/>
    <vehicle id="right_226" type="slow_car" route="AL_A/A_B/B_C/C_CR" depart="443" />
    <vehicle id="right_227" type="slow_car" route="CR_C/C_B/B_A/A_AL" depart="446" />
    <vehicle id="right_228" type="slow_car" route="AL_A/A_B/B_C/C_CR" depart="453" />
    <vehicle id="down_229" type="slow_car" route="DR_D/D_E/E_F/F_FL" depart="456" color="1,0,0"/>
    <vehicle id="left_230" type="slow_car" route="FL_F/F_E/E_D/D_DR" depart="460" />
    <vehicle id="right_231" type="slow_car" route="CR_C/C_B/B_A/A_AL" depart="462" />
    <vehicle id="right_232" type="slow_car" route="AL_A/A_B/B_C/C_CR" depart="464" />
    <vehicle id="right_233" type="slow_car" route="FB_F/F_A/A_AT" depart="467" />
    <vehicle id="left_234" type="slow_car" route="FL_F/F_E/E_D/D_DR" depart="470" />
    <vehicle id="left_235" type="slow_car" route="FL_F/F_E/E_D/D_DR" depart="471" />
    <vehicle id="right_236" type="slow_car" route="CR_C/C_B/B_A/A_AL" depart="475" />
    <vehicle id="right_237" type="slow_car" route="CR_C/C_B/B_A/A_AL" depart="478" />
    <vehicle id="right_238" type="slow_car" route="DB_D/D_C/C_CT" depart="480" />
    <vehicle id="right_239" type="slow_car" route="CR_C/C_B/B_A/A_AL" depart="483" />
    <vehicle id="right_240" type="slow_car" route="FB_F/F_A/A_AT" depart="483" />
    <vehicle id="right_241" type="slow_car" route="CT_C/C_D/D_DB" depart="483" />
    <vehicle id="right_242" type="slow_car" route="AL_A/A_B/B_C/C_CR" depart="488" />
    <vehicle id="right_243" type="slow_car" route="AL_A/A_B/B_C/C_CR" depart="489" />
    <vehicle id="right_244" type="slow_car" route="CR_C/C_B/B_A/A_AL" depart="494" />
    <vehicle id="left_245" type="slow_car" route="FL_F/F_E/E_D/D_DR" depart="494" />
    <vehicle id="right_246" type="slow_car" route="AL_A/A_B/B_C/C_CR" depart="495" />
    <vehicle id="left_247" type="slow_car" route="FL_F/F_E/E_D/D_DR" depart="495" />
    <vehicle id="right_248" type="slow_car" route="CR_C/C_B/B_A/A_AL" depart="504" />
    <vehicle id="down_249" type="slow_car" route="DR_D/D_E/E_F/F_FL" depart="508" color="1,0,0"/>
    <vehicle id="right_250" type="slow_car" route="AL_A/A_B/B_C/C_CR" depart="509" />
    <vehicle id="left_251" type="slow_car" route="FL_F/F_E/E_D/D_DR" depart="509" />
    <vehicle id="down_252" type="slow_car" route="DR_D/D_E/E_F/F_FL" depart="509" color="1,0,0"/>
    <vehicle id="left_253" type="slow_car" route="FL_F/F_E/E_D/D_DR" depart="511" />
    <vehicle id="right_254" type="slow_car" route="CT_C/C_D/D_DB" depart="512" />
    <vehicle id="left_255" type="slow_car" route="FL_F/F_E/E_D/D_DR" depart="513" />
    <vehicle id="down_256" type="slow_car" route="DR_D/D_E/E_F/F_FL" depart="513" color="1,0,0"/>
    <vehicle id="left_257" type="slow_car" route="FL_F/F_E/E_D/D_DR" depart="517" />
    <vehicle id="right_258" type="slow_car" route="AL_A/A_B/B_C/C_CR" depart="518" />
    <vehicle id="right_259" type="slow_car" route="AL_A/A_B/B_C/C_CR" depart="519" />
    <vehicle id="left_260" type="slow_car" route="FL_F/F_E/E_D/D_DR" depart="519" />
    <vehicle id="down_261" type="slow_car" route="DR_D/D_E/E_F/F_FL" depart="522" color="1,0,0"/>
    <vehicle id="right_262" type="slow_car" route="AL_A/A_B/B_C/C_CR" depart="526" />
    <vehicle id="right_263" type="slow_car" route="DB_D/D_C/C_CT" depart="532" />
    <vehicle id="right_264" type="slow_car" route="FB_F/F_A/A_AT" depart="537" />
    <vehicle id="right_265" type="slow_car" route="AL_A/A_B/B_C/C_CR" depart="538" />
    <vehicle id="left_266" type="slow_car" route="FL_F/F_E/E_D/D_DR" depart="538" />
    <vehicle id="right_267" type="slow_car" route="CR_C/C_B/B_A/A_AL" depart="539" />
    <vehicle id="right_268" type="slow_car" route="DB_D/D_C/C_CT" depart="540" />
    <vehicle id="left_269" type="slow_car" route="FL_F/F_E/E_D/D_DR" depart="543" />
    <vehicle id="right_270" type="slow_car" route="FB_F/F_A/A_AT" depart="544" />
    <vehicle id="down_271" type="slow_car" route="DR_D/D_E/E_F/F_FL" depart="544" color="1,0,0"/>
    <vehicle id="right_272" type="slow_car" route="FB_F/F_A/A_AT" depart="545" />
    <vehicle id="down_273" type="slow_car" route="DR_D/D_E/E_F/F_FL" depart="548" color="1,0,0"/>
    <vehicle id="right_274" type="slow_car" route="AL_A/A_B/B_C/C_CR" depart="549" />
    <vehicle id="right_275" type="slow_car" route="CR_C/C_B/B_A/A_AL" depart="553" />
    <vehicle id="right_276" type="slow_car" route="FB_F/F_A/A_AT" depart="556" />
    <vehicle id="right_277" type="slow_car" route="CR_C/C_B/B_A/A_AL" depart="557" />
    <vehicle id="right_278" type="slow_car" route="AL_A/A_B/B_C/C_CR" depart="558" />
    <vehicle id="right_279" type="slow_car" route="CR_C/C_B/B_A/A_AL" depart="562" />
    <vehicle id="right_280" type="slow_car" route="CT_C/C_D/D_DB" depart="562" />
    <vehicle id="right_281" type="slow_car" route="CR_C/C_B/B_A/A_AL" depart="567" />
    <vehicle id="right_282" type="slow_car" route="AL_A/A_B/B_C/C_CR" depart="569" />
    <vehicle id="right_283" type="slow_car" route="CR_C/C_B/B_A/A_AL" depart="575" />
    <vehicle id="right_284" type="slow_car" route="CR_C/C_B/B_A/A_AL" depart="576" />
    <vehicle id="right_285" type="slow_car" route="AL_A/A_B/B_C/C_CR" depart="577" />
    <vehicle id="down_286" type="slow_car" route="DR_D/D_E/E_F/F_FL" depart="578" color="1,0,0"/>
    <vehicle id="right_287" type="slow_car" route="AL_A/A_B/B_C/C_CR" depart="579" />
    <vehicle id="right_288" type="slow_car" route="AT_A/A_F/F_FB" depart="580" />
    <vehicle id="left_289" type="slow_car" route="FL_F/F_E/E_D/D_DR" depart="580" />
    <vehicle id="down_290" type="slow_car" route="DR_D/D_E/E_F/F_FL" depart="582" color="1,0,0"/>
    <vehicle id="right_291" type="slow_car" route="CR_C/C_B/B_A/A_AL" depart="583" />
    <vehicle id="right_292" type="slow_car" route="CR_C/C_B/B_A/A_AL" depart="585" />
    <vehicle id="down_293" type="slow_car" route="DR_D/D_E/E_F/F_FL" depart="585" color="1,0,0"/>
    <vehicle id="left_294" type="slow_car" route="FL_F/F_E/E_D/D_DR" depart="586" />
    <vehicle id="right_295" type="slow_car" route="AT_A/A_F/F_FB" depart="588" />
    <vehicle id="left_296" type="slow_car" route="FL_F/F_E/E_D/D_DR" depart="588" />
    <vehicle id="right_297" type="slow_car" route="AL_A/A_B/B_C/C_CR" depart="590" />
    <vehicle id="right_298" type="slow_car" route="AL_A/A_B/B_C/C_CR" depart="591" />
    <vehicle id="right_299" type="slow_car" route="AT_A/A_F/F_FB" depart="591" />
    <vehicle id="right_300" type="slow_car" route="AL_A/A_B/B_C/C_CR" depart="592" />