<?xml version="1.0" encoding="UTF-8"?>

<!-- generated on 07/15/20 19:11:58 by Eclipse SUMO netconvert Version 1.6.0
<configuration xmlns:xsi="http://www.w3.org/2001/XMLSchema-instance" xsi:noNamespaceSchemaLocation="http://sumo.dlr.de/xsd/netconvertConfiguration.xsd">

    <input>
        <node-files value="smartcities.nod.xml"/>
        <edge-files value="smartcities.edg.xml"/>
        <type-files value="smartcities.typ.xml"/>
    </input>

    <output>
        <output-file value="smartcities.net.xml"/>
    </output>

    <junctions>
        <no-turnarounds value="true"/>
    </junctions>

    <report>
        <aggregate-warnings value="5"/>
    </report>

</configuration>
-->

<net version="1.6" junctionCornerDetail="5" limitTurnSpeed="5.50" xmlns:xsi="http://www.w3.org/2001/XMLSchema-instance" xsi:noNamespaceSchemaLocation="http://sumo.dlr.de/xsd/net_file.xsd">

    <location netOffset="0.00,100.00" convBoundary="0.00,0.00,400.00,200.00" origBoundary="0.00,-100.00,400.00,100.00" projParameter="!"/>

    <type id="Alone" numLanes="1" speed="15.00"/>
    <type id="Double" numLanes="2" speed="15.00"/>
    <type id="Triple" numLanes="3" speed="15.00"/>

    <edge id=":A_0" function="internal">
        <lane id=":A_0_0" index="0" speed="6.51" length="9.03" shape="92.00,113.60 91.65,111.15 90.60,109.40 88.85,108.35 86.40,108.00"/>
    </edge>
    <edge id=":A_1" function="internal">
        <lane id=":A_1_0" index="0" speed="15.00" length="27.43" shape="92.00,113.60 92.50,104.98 93.60,98.61 94.70,92.94 95.20,86.40"/>
        <lane id=":A_1_1" index="1" speed="15.00" length="27.43" shape="95.20,113.60 95.70,104.98 96.80,98.61 97.90,92.94 98.40,86.40"/>
    </edge>
    <edge id=":A_3" function="internal">
        <lane id=":A_3_0" index="0" speed="10.36" length="7.98" shape="98.40,113.60 99.35,106.95 100.00,105.87"/>
    </edge>
    <edge id=":A_18" function="internal">
        <lane id=":A_18_0" index="0" speed="10.36" length="16.53" shape="100.00,105.87 102.20,102.20 106.95,99.35 113.60,98.40"/>
    </edge>
    <edge id=":A_4" function="internal">
        <lane id=":A_4_0" index="0" speed="6.51" length="9.03" shape="113.60,108.00 111.15,108.35 109.40,109.40 108.35,111.15 108.00,113.60"/>
    </edge>
    <edge id=":A_5" function="internal">
        <lane id=":A_5_0" index="0" speed="15.00" length="27.20" shape="113.60,108.00 86.40,108.00"/>
        <lane id=":A_5_1" index="1" speed="15.00" length="27.20" shape="113.60,104.80 86.40,104.80"/>
        <lane id=":A_5_2" index="2" speed="15.00" length="27.20" shape="113.60,101.60 86.40,101.60"/>
    </edge>
    <edge id=":A_8" function="internal">
        <lane id=":A_8_0" index="0" speed="10.36" length="7.98" shape="113.60,101.60 106.95,100.65 105.87,100.00"/>
    </edge>
    <edge id=":A_19" function="internal">
        <lane id=":A_19_0" index="0" speed="10.36" length="16.53" shape="105.87,100.00 102.20,97.80 99.35,93.05 98.40,86.40"/>
    </edge>
    <edge id=":A_9" function="internal">
        <lane id=":A_9_0" index="0" speed="7.33" length="11.73" shape="104.80,86.40 105.35,88.85 107.00,90.60 109.75,91.65 113.60,92.00"/>
    </edge>
    <edge id=":A_10" function="internal">
        <lane id=":A_10_0" index="0" speed="15.00" length="27.20" shape="104.80,86.40 104.80,113.60"/>
        <lane id=":A_10_1" index="1" speed="15.00" length="27.20" shape="101.60,86.40 101.60,113.60"/>
    </edge>
    <edge id=":A_12" function="internal">
        <lane id=":A_12_0" index="0" speed="10.36" length="9.99" shape="101.60,86.40 100.65,93.05 98.96,95.86"/>
    </edge>
    <edge id=":A_20" function="internal">
        <lane id=":A_20_0" index="0" speed="10.36" length="14.52" shape="98.96,95.86 97.80,97.80 93.05,100.65 86.40,101.60"/>
    </edge>
    <edge id=":A_13" function="internal">
        <lane id=":A_13_0" index="0" speed="7.33" length="11.73" shape="86.40,92.00 90.25,91.65 93.00,90.60 94.65,88.85 95.20,86.40"/>
    </edge>
    <edge id=":A_14" function="internal">
        <lane id=":A_14_0" index="0" speed="15.00" length="27.20" shape="86.40,92.00 113.60,92.00"/>
        <lane id=":A_14_1" index="1" speed="15.00" length="27.20" shape="86.40,95.20 113.60,95.20"/>
        <lane id=":A_14_2" index="2" speed="15.00" length="27.20" shape="86.40,98.40 113.60,98.40"/>
    </edge>
    <edge id=":A_17" function="internal">
        <lane id=":A_17_0" index="0" speed="10.36" length="7.98" shape="86.40,98.40 93.05,99.35 94.13,100.00"/>
    </edge>
    <edge id=":A_21" function="internal">
        <lane id=":A_21_0" index="0" speed="10.36" length="16.53" shape="94.13,100.00 97.80,102.20 100.65,106.95 101.60,113.60"/>
    </edge>
    <edge id=":B_0" function="internal">
        <lane id=":B_0_0" index="0" speed="6.51" length="9.03" shape="195.20,113.60 194.85,111.15 193.80,109.40 192.05,108.35 189.60,108.00"/>
    </edge>
    <edge id=":B_1" function="internal">
        <lane id=":B_1_0" index="0" speed="8.00" length="14.19" shape="198.40,113.60 197.85,109.75 196.20,107.00 193.45,105.35 189.60,104.80"/>
    </edge>
    <edge id=":B_2" function="internal">
        <lane id=":B_2_0" index="0" speed="10.41" length="24.73" shape="198.40,113.60 199.15,105.55 201.40,99.80 205.15,96.35 210.40,95.20"/>
    </edge>
    <edge id=":B_3" function="internal">
        <lane id=":B_3_0" index="0" speed="9.84" length="21.99" shape="198.40,113.60 199.15,106.95 201.40,102.20 205.15,99.35 210.40,98.40"/>
    </edge>
    <edge id=":B_4" function="internal">
        <lane id=":B_4_0" index="0" speed="6.51" length="9.03" shape="210.40,108.00 207.95,108.35 206.20,109.40 205.15,111.15 204.80,113.60"/>
    </edge>
    <edge id=":B_5" function="internal">
        <lane id=":B_5_0" index="0" speed="15.00" length="20.80" shape="210.40,108.00 189.60,108.00"/>
        <lane id=":B_5_1" index="1" speed="15.00" length="20.80" shape="210.40,104.80 189.60,104.80"/>
        <lane id=":B_5_2" index="2" speed="15.00" length="20.80" shape="210.40,101.60 189.60,101.60"/>
    </edge>
    <edge id=":B_8" function="internal">
        <lane id=":B_8_0" index="0" speed="15.00" length="20.80" shape="189.60,92.00 210.40,92.00"/>
        <lane id=":B_8_1" index="1" speed="15.00" length="20.80" shape="189.60,95.20 210.40,95.20"/>
        <lane id=":B_8_2" index="2" speed="15.00" length="20.80" shape="189.60,98.40 210.40,98.40"/>
    </edge>
    <edge id=":B_11" function="internal">
        <lane id=":B_11_0" index="0" speed="9.84" length="6.41" shape="189.60,98.40 194.85,99.35 195.71,100.00"/>
    </edge>
    <edge id=":B_12" function="internal">
        <lane id=":B_12_0" index="0" speed="9.84" length="15.58" shape="195.71,100.00 198.60,102.20 200.85,106.95 201.60,113.60"/>
    </edge>
    <edge id=":C_0" function="internal">
        <lane id=":C_0_0" index="0" speed="6.51" length="9.03" shape="292.00,113.60 291.65,111.15 290.60,109.40 288.85,108.35 286.40,108.00"/>
    </edge>
    <edge id=":C_1" function="internal">
        <lane id=":C_1_0" index="0" speed="15.00" length="27.43" shape="292.00,113.60 292.50,104.98 293.60,98.61 294.70,92.94 295.20,86.40"/>
        <lane id=":C_1_1" index="1" speed="15.00" length="27.43" shape="295.20,113.60 295.70,104.98 296.80,98.61 297.90,92.94 298.40,86.40"/>
    </edge>
    <edge id=":C_3" function="internal">
        <lane id=":C_3_0" index="0" speed="9.84" length="8.68" shape="298.40,113.60 299.15,106.95 300.00,105.16"/>
    </edge>
    <edge id=":C_18" function="internal">
        <lane id=":C_18_0" index="0" speed="9.84" length="13.32" shape="300.00,105.16 301.40,102.20 305.15,99.35 310.40,98.40"/>
    </edge>
    <edge id=":C_4" function="internal">
        <lane id=":C_4_0" index="0" speed="6.51" length="9.03" shape="310.40,108.00 307.95,108.35 306.20,109.40 305.15,111.15 304.80,113.60"/>
    </edge>
    <edge id=":C_5" function="internal">
        <lane id=":C_5_0" index="0" speed="15.00" length="24.00" shape="310.40,108.00 286.40,108.00"/>
        <lane id=":C_5_1" index="1" speed="15.00" length="24.00" shape="310.40,104.80 286.40,104.80"/>
        <lane id=":C_5_2" index="2" speed="15.00" length="24.00" shape="310.40,101.60 286.40,101.60"/>
    </edge>
    <edge id=":C_8" function="internal">
        <lane id=":C_8_0" index="0" speed="9.84" length="6.41" shape="310.40,101.60 305.15,100.65 304.29,100.00"/>
    </edge>
    <edge id=":C_19" function="internal">
        <lane id=":C_19_0" index="0" speed="9.84" length="15.58" shape="304.29,100.00 301.40,97.80 299.15,93.05 298.40,86.40"/>
    </edge>
    <edge id=":C_9" function="internal">
        <lane id=":C_9_0" index="0" speed="6.51" length="9.03" shape="304.80,86.40 305.15,88.85 306.20,90.60 307.95,91.65 310.40,92.00"/>
    </edge>
    <edge id=":C_10" function="internal">
        <lane id=":C_10_0" index="0" speed="15.00" length="27.20" shape="304.80,86.40 304.80,113.60"/>
        <lane id=":C_10_1" index="1" speed="15.00" length="27.20" shape="301.60,86.40 301.60,113.60"/>
    </edge>
    <edge id=":C_12" function="internal">
        <lane id=":C_12_0" index="0" speed="10.36" length="9.99" shape="301.60,86.40 300.65,93.05 298.96,95.86"/>
    </edge>
    <edge id=":C_20" function="internal">
        <lane id=":C_20_0" index="0" speed="10.36" length="14.52" shape="298.96,95.86 297.80,97.80 293.05,100.65 286.40,101.60"/>
    </edge>
    <edge id=":C_13" function="internal">
        <lane id=":C_13_0" index="0" speed="7.33" length="11.73" shape="286.40,92.00 290.25,91.65 293.00,90.60 294.65,88.85 295.20,86.40"/>
    </edge>
    <edge id=":C_14" function="internal">
        <lane id=":C_14_0" index="0" speed="15.00" length="24.00" shape="286.40,92.00 310.40,92.00"/>
        <lane id=":C_14_1" index="1" speed="15.00" length="24.00" shape="286.40,95.20 310.40,95.20"/>
        <lane id=":C_14_2" index="2" speed="15.00" length="24.00" shape="286.40,98.40 310.40,98.40"/>
    </edge>
    <edge id=":C_17" function="internal">
        <lane id=":C_17_0" index="0" speed="10.36" length="7.98" shape="286.40,98.40 293.05,99.35 294.13,100.00"/>
    </edge>
    <edge id=":C_21" function="internal">
        <lane id=":C_21_0" index="0" speed="10.36" length="16.53" shape="294.13,100.00 297.80,102.20 300.65,106.95 301.60,113.60"/>
    </edge>
    <edge id=":D_0" function="internal">
        <lane id=":D_0_0" index="0" speed="6.51" length="9.03" shape="295.20,10.40 294.85,7.95 293.80,6.20 292.05,5.15 289.60,4.80"/>
    </edge>
    <edge id=":D_1" function="internal">
        <lane id=":D_1_0" index="0" speed="9.26" length="19.35" shape="298.40,10.40 299.15,5.15 301.40,1.40 305.15,-0.85 310.40,-1.60"/>
    </edge>
    <edge id=":D_2" function="internal">
        <lane id=":D_2_0" index="0" speed="6.51" length="9.03" shape="310.40,4.80 307.95,5.15 306.20,6.20 305.15,7.95 304.80,10.40"/>
    </edge>
    <edge id=":D_3" function="internal">
        <lane id=":D_3_0" index="0" speed="15.00" length="20.80" shape="310.40,4.80 289.60,4.80"/>
        <lane id=":D_3_1" index="1" speed="15.00" length="20.80" shape="310.40,1.60 289.60,1.60"/>
    </edge>
    <edge id=":D_5" function="internal">
        <lane id=":D_5_0" index="0" speed="15.00" length="20.80" shape="289.60,-4.80 310.40,-4.80"/>
        <lane id=":D_5_1" index="1" speed="15.00" length="20.80" shape="289.60,-1.60 310.40,-1.60"/>
    </edge>
    <edge id=":D_7" function="internal">
        <lane id=":D_7_0" index="0" speed="9.26" length="6.96" shape="289.60,-1.60 294.85,-0.85 296.27,0.00"/>
    </edge>
    <edge id=":D_8" function="internal">
        <lane id=":D_8_0" index="0" speed="9.26" length="12.40" shape="296.27,0.00 298.60,1.40 300.85,5.15 301.60,10.40"/>
    </edge>
    <edge id=":E_0" function="internal">
        <lane id=":E_0_0" index="0" speed="6.51" length="9.03" shape="95.20,10.40 94.85,7.95 93.80,6.20 92.05,5.15 89.60,4.80"/>
    </edge>
    <edge id=":E_1" function="internal">
        <lane id=":E_1_0" index="0" speed="8.00" length="14.19" shape="98.40,10.40 97.85,6.55 96.20,3.80 93.45,2.15 89.60,1.60"/>
    </edge>
    <edge id=":E_2" function="internal">
        <lane id=":E_2_0" index="0" speed="9.26" length="19.35" shape="98.40,10.40 99.15,5.15 101.40,1.40 105.15,-0.85 110.40,-1.60"/>
    </edge>
    <edge id=":E_3" function="internal">
        <lane id=":E_3_0" index="0" speed="6.51" length="9.03" shape="110.40,4.80 107.95,5.15 106.20,6.20 105.15,7.95 104.80,10.40"/>
    </edge>
    <edge id=":E_4" function="internal">
        <lane id=":E_4_0" index="0" speed="15.00" length="20.80" shape="110.40,4.80 89.60,4.80"/>
        <lane id=":E_4_1" index="1" speed="15.00" length="20.80" shape="110.40,1.60 89.60,1.60"/>
    </edge>
    <edge id=":E_6" function="internal">
        <lane id=":E_6_0" index="0" speed="15.00" length="20.80" shape="89.60,-4.80 110.40,-4.80"/>
        <lane id=":E_6_1" index="1" speed="15.00" length="20.80" shape="89.60,-1.60 110.40,-1.60"/>
    </edge>
    <edge id=":E_8" function="internal">
        <lane id=":E_8_0" index="0" speed="9.26" length="6.96" shape="89.60,-1.60 94.85,-0.85 96.27,0.00"/>
    </edge>
    <edge id=":E_9" function="internal">
        <lane id=":E_9_0" index="0" speed="9.26" length="12.40" shape="96.27,0.00 98.60,1.40 100.85,5.15 101.60,10.40"/>
    </edge>

    <edge id="AL_A" from="AL" to="A" priority="-1" type="Triple">
        <lane id="AL_A_0" index="0" speed="15.00" length="86.40" shape="0.00,92.00 86.40,92.00"/>
        <lane id="AL_A_1" index="1" speed="15.00" length="86.40" shape="0.00,95.20 86.40,95.20"/>
        <lane id="AL_A_2" index="2" speed="15.00" length="86.40" shape="0.00,98.40 86.40,98.40"/>
    </edge>
    <edge id="AT_A" from="AT" to="A" priority="-1" type="Triple">
        <lane id="AT_A_0" index="0" speed="15.00" length="86.40" shape="92.00,200.00 92.00,113.60"/>
        <lane id="AT_A_1" index="1" speed="15.00" length="86.40" shape="95.20,200.00 95.20,113.60"/>
        <lane id="AT_A_2" index="2" speed="15.00" length="86.40" shape="98.40,200.00 98.40,113.60"/>
    </edge>
    <edge id="A_AL" from="A" to="AL" priority="-1" type="Triple">
        <lane id="A_AL_0" index="0" speed="15.00" length="86.40" shape="86.40,108.00 0.00,108.00"/>
        <lane id="A_AL_1" index="1" speed="15.00" length="86.40" shape="86.40,104.80 0.00,104.80"/>
        <lane id="A_AL_2" index="2" speed="15.00" length="86.40" shape="86.40,101.60 0.00,101.60"/>
    </edge>
    <edge id="A_AT" from="A" to="AT" priority="-1" type="Triple">
        <lane id="A_AT_0" index="0" speed="15.00" length="86.40" shape="108.00,113.60 108.00,200.00"/>
        <lane id="A_AT_1" index="1" speed="15.00" length="86.40" shape="104.80,113.60 104.80,200.00"/>
        <lane id="A_AT_2" index="2" speed="15.00" length="86.40" shape="101.60,113.60 101.60,200.00"/>
    </edge>
    <edge id="A_B" from="A" to="B" priority="-1" type="Triple">
        <lane id="A_B_0" index="0" speed="15.00" length="76.00" shape="113.60,92.00 189.60,92.00"/>
        <lane id="A_B_1" index="1" speed="15.00" length="76.00" shape="113.60,95.20 189.60,95.20"/>
        <lane id="A_B_2" index="2" speed="15.00" length="76.00" shape="113.60,98.40 189.60,98.40"/>
    </edge>
    <edge id="A_E" from="A" to="E" priority="-1" type="Double">
        <lane id="A_E_0" index="0" speed="15.00" length="76.00" shape="95.20,86.40 95.20,10.40"/>
        <lane id="A_E_1" index="1" speed="15.00" length="76.00" shape="98.40,86.40 98.40,10.40"/>
    </edge>
    <edge id="BT_B" from="BT" to="B" priority="-1" type="Double">
        <lane id="BT_B_0" index="0" speed="15.00" length="86.40" shape="195.20,200.00 195.20,113.60"/>
        <lane id="BT_B_1" index="1" speed="15.00" length="86.40" shape="198.40,200.00 198.40,113.60"/>
    </edge>
    <edge id="B_A" from="B" to="A" priority="-1" type="Triple">
        <lane id="B_A_0" index="0" speed="15.00" length="76.00" shape="189.60,108.00 113.60,108.00"/>
        <lane id="B_A_1" index="1" speed="15.00" length="76.00" shape="189.60,104.80 113.60,104.80"/>
        <lane id="B_A_2" index="2" speed="15.00" length="76.00" shape="189.60,101.60 113.60,101.60"/>
    </edge>
    <edge id="B_BT" from="B" to="BT" priority="-1" type="Double">
        <lane id="B_BT_0" index="0" speed="15.00" length="86.40" shape="204.80,113.60 204.80,200.00"/>
        <lane id="B_BT_1" index="1" speed="15.00" length="86.40" shape="201.60,113.60 201.60,200.00"/>
    </edge>
    <edge id="B_C" from="B" to="C" priority="-1" type="Triple">
        <lane id="B_C_0" index="0" speed="15.00" length="76.00" shape="210.40,92.00 286.40,92.00"/>
        <lane id="B_C_1" index="1" speed="15.00" length="76.00" shape="210.40,95.20 286.40,95.20"/>
        <lane id="B_C_2" index="2" speed="15.00" length="76.00" shape="210.40,98.40 286.40,98.40"/>
    </edge>
    <edge id="CR_C" from="CR" to="C" priority="-1" type="Triple">
        <lane id="CR_C_0" index="0" speed="15.00" length="89.60" shape="400.00,108.00 310.40,108.00"/>
        <lane id="CR_C_1" index="1" speed="15.00" length="89.60" shape="400.00,104.80 310.40,104.80"/>
        <lane id="CR_C_2" index="2" speed="15.00" length="89.60" shape="400.00,101.60 310.40,101.60"/>
    </edge>
    <edge id="CT_C" from="CT" to="C" priority="-1" type="Triple">
        <lane id="CT_C_0" index="0" speed="15.00" length="86.40" shape="292.00,200.00 292.00,113.60"/>
        <lane id="CT_C_1" index="1" speed="15.00" length="86.40" shape="295.20,200.00 295.20,113.60"/>
        <lane id="CT_C_2" index="2" speed="15.00" length="86.40" shape="298.40,200.00 298.40,113.60"/>
    </edge>
    <edge id="C_B" from="C" to="B" priority="-1" type="Triple">
        <lane id="C_B_0" index="0" speed="15.00" length="76.00" shape="286.40,108.00 210.40,108.00"/>
        <lane id="C_B_1" index="1" speed="15.00" length="76.00" shape="286.40,104.80 210.40,104.80"/>
        <lane id="C_B_2" index="2" speed="15.00" length="76.00" shape="286.40,101.60 210.40,101.60"/>
    </edge>
    <edge id="C_CR" from="C" to="CR" priority="-1" type="Triple">
        <lane id="C_CR_0" index="0" speed="15.00" length="89.60" shape="310.40,92.00 400.00,92.00"/>
        <lane id="C_CR_1" index="1" speed="15.00" length="89.60" shape="310.40,95.20 400.00,95.20"/>
        <lane id="C_CR_2" index="2" speed="15.00" length="89.60" shape="310.40,98.40 400.00,98.40"/>
    </edge>
    <edge id="C_CT" from="C" to="CT" priority="-1" type="Double">
        <lane id="C_CT_0" index="0" speed="15.00" length="86.40" shape="304.80,113.60 304.80,200.00"/>
        <lane id="C_CT_1" index="1" speed="15.00" length="86.40" shape="301.60,113.60 301.60,200.00"/>
    </edge>
    <edge id="C_D" from="C" to="D" priority="-1" type="Double">
        <lane id="C_D_0" index="0" speed="15.00" length="76.00" shape="295.20,86.40 295.20,10.40"/>
        <lane id="C_D_1" index="1" speed="15.00" length="76.00" shape="298.40,86.40 298.40,10.40"/>
    </edge>
    <edge id="DR_D" from="DR" to="D" priority="-1" type="Double">
        <lane id="DR_D_0" index="0" speed="15.00" length="89.60" shape="400.00,4.80 310.40,4.80"/>
        <lane id="DR_D_1" index="1" speed="15.00" length="89.60" shape="400.00,1.60 310.40,1.60"/>
    </edge>
    <edge id="D_C" from="D" to="C" priority="-1" type="Double">
        <lane id="D_C_0" index="0" speed="15.00" length="76.00" shape="304.80,10.40 304.80,86.40"/>
        <lane id="D_C_1" index="1" speed="15.00" length="76.00" shape="301.60,10.40 301.60,86.40"/>
    </edge>
    <edge id="D_DR" from="D" to="DR" priority="-1" type="Double">
        <lane id="D_DR_0" index="0" speed="15.00" length="89.60" shape="310.40,-4.80 400.00,-4.80"/>
        <lane id="D_DR_1" index="1" speed="15.00" length="89.60" shape="310.40,-1.60 400.00,-1.60"/>
    </edge>
    <edge id="D_E" from="D" to="E" priority="-1" type="Double">
        <lane id="D_E_0" index="0" speed="15.00" length="179.20" shape="289.60,4.80 110.40,4.80"/>
        <lane id="D_E_1" index="1" speed="15.00" length="179.20" shape="289.60,1.60 110.40,1.60"/>
    </edge>
    <edge id="EL_E" from="EL" to="E" priority="-1" type="Double">
        <lane id="EL_E_0" index="0" speed="15.00" length="89.60" shape="0.00,-4.80 89.60,-4.80"/>
        <lane id="EL_E_1" index="1" speed="15.00" length="89.60" shape="0.00,-1.60 89.60,-1.60"/>
    </edge>
    <edge id="E_A" from="E" to="A" priority="-1" type="Double">
        <lane id="E_A_0" index="0" speed="15.00" length="76.00" shape="104.80,10.40 104.80,86.40"/>
        <lane id="E_A_1" index="1" speed="15.00" length="76.00" shape="101.60,10.40 101.60,86.40"/>
    </edge>
    <edge id="E_D" from="E" to="D" priority="-1" type="Double">
        <lane id="E_D_0" index="0" speed="15.00" length="179.20" shape="110.40,-4.80 289.60,-4.80"/>
        <lane id="E_D_1" index="1" speed="15.00" length="179.20" shape="110.40,-1.60 289.60,-1.60"/>
    </edge>
    <edge id="E_EL" from="E" to="EL" priority="-1" type="Double">
        <lane id="E_EL_0" index="0" speed="15.00" length="89.60" shape="89.60,4.80 0.00,4.80"/>
        <lane id="E_EL_1" index="1" speed="15.00" length="89.60" shape="89.60,1.60 0.00,1.60"/>
    </edge>

    <tlLogic id="A" type="static" programID="0" offset="0">
        <phase duration="38" state="rrrrGGGGgrrrrGGGGg"/>
        <phase duration="3"  state="rrrryyyyyrrrryyyyy"/>
        <phase duration="37" state="GGGgrrrrrGGGgrrrrr"/>
        <phase duration="3"  state="yyygrrrrryyygrrrrr"/>
        <phase duration="6"  state="rrrGrrrrrrrrGrrrrr"/>
        <phase duration="3"  state="rrryrrrrrrrryrrrrr"/>
    </tlLogic>
    <tlLogic id="B" type="static" programID="0" offset="0">
        <phase duration="42" state="rrrrGGGGGGGg"/>
        <phase duration="3"  state="rrrryyyyyyyy"/>
        <phase duration="42" state="GGGGGrrrrrrr"/>
        <phase duration="3"  state="yyyyyrrrrrrr"/>
    </tlLogic>
    <tlLogic id="C" type="static" programID="0" offset="0">
        <phase duration="38" state="rrrrGGGGgrrrrGGGGg"/>
        <phase duration="3"  state="rrrryyyyyrrrryyyyy"/>
        <phase duration="37" state="GGGgrrrrrGGGgrrrrr"/>
        <phase duration="3"  state="yyygrrrrryyygrrrrr"/>
        <phase duration="6"  state="rrrGrrrrrrrrGrrrrr"/>
        <phase duration="3"  state="rrryrrrrrrrryrrrrr"/>
    </tlLogic>
    <tlLogic id="E" type="static" programID="0" offset="0">
        <phase duration="42" state="rrrGGGGGg"/>
        <phase duration="3"  state="rrryyyyyy"/>
        <phase duration="42" state="GGGGrrrrr"/>
        <phase duration="3"  state="yyyyrrrrr"/>
    </tlLogic>

    <junction id="A" type="traffic_light" x="100.00" y="100.00" incLanes="AT_A_0 AT_A_1 AT_A_2 B_A_0 B_A_1 B_A_2 E_A_0 E_A_1 AL_A_0 AL_A_1 AL_A_2" intLanes=":A_0_0 :A_1_0 :A_1_1 :A_18_0 :A_4_0 :A_5_0 :A_5_1 :A_5_2 :A_19_0 :A_9_0 :A_10_0 :A_10_1 :A_20_0 :A_13_0 :A_14_0 :A_14_1 :A_14_2 :A_21_0" shape="90.40,113.60 109.60,113.60 110.04,111.38 110.60,110.60 111.38,110.04 112.38,109.71 113.60,109.60 113.60,90.40 111.40,90.29 109.60,89.96 108.20,89.40 107.20,88.62 106.60,87.62 106.40,86.40 93.60,86.40 92.80,88.62 91.80,89.40 90.40,89.96 88.60,90.29 86.40,90.40 86.40,109.60 88.62,110.04 89.40,110.60 89.96,111.38 90.29,112.38">
        <request index="0"  response="000000000011100000" foes="000000000011100000" cont="0"/>
        <request index="1"  response="111110000111100000" foes="111111000111100000" cont="0"/>
        <request index="2"  response="111110000111100000" foes="111111000111100000" cont="0"/>
        <request index="3"  response="111100110111100000" foes="111100110111100000" cont="1"/>
        <request index="4"  response="000000000000000000" foes="000000000000000000" cont="0"/>
        <request index="5"  response="000001000000001000" foes="100001110000001111" cont="0"/>
        <request index="6"  response="000001000000001000" foes="100001110000001111" cont="0"/>
        <request index="7"  response="000001000000001000" foes="100001110000001111" cont="0"/>
        <request index="8"  response="011101000000001000" foes="011101110000001110" cont="1"/>
        <request index="9"  response="011100000000000000" foes="011100000000000000" cont="0"/>
        <request index="10" response="111100000111100000" foes="111100000111101000" cont="0"/>
        <request index="11" response="111100000111100000" foes="111100000111101000" cont="0"/>
        <request index="12" response="111100000111100110" foes="111100000111100110" cont="1"/>
        <request index="13" response="000000000000000000" foes="000000000000000110" cont="0"/>
        <request index="14" response="000001000000001000" foes="000001111100001110" cont="0"/>
        <request index="15" response="000001000000001000" foes="000001111100001110" cont="0"/>
        <request index="16" response="000001000000001000" foes="000001111100001110" cont="0"/>
        <request index="17" response="000001000011101000" foes="000001110011101110" cont="1"/>
    </junction>
    <junction id="AL" type="dead_end" x="0.00" y="100.00" incLanes="A_AL_0 A_AL_1 A_AL_2" intLanes="" shape="0.00,100.00 0.00,109.60 0.00,100.00"/>
    <junction id="AT" type="dead_end" x="100.00" y="200.00" incLanes="A_AT_0 A_AT_1 A_AT_2" intLanes="" shape="100.00,200.00 109.60,200.00 100.00,200.00"/>
    <junction id="B" type="traffic_light" x="200.00" y="100.00" incLanes="BT_B_0 BT_B_1 C_B_0 C_B_1 C_B_2 A_B_0 A_B_1 A_B_2" intLanes=":B_0_0 :B_1_0 :B_2_0 :B_3_0 :B_4_0 :B_5_0 :B_5_1 :B_5_2 :B_8_0 :B_8_1 :B_8_2 :B_12_0" shape="193.60,113.60 206.40,113.60 206.84,111.38 207.40,110.60 208.18,110.04 209.18,109.71 210.40,109.60 210.40,90.40 189.60,90.40 189.60,109.60 191.82,110.04 192.60,110.60 193.16,111.38 193.49,112.38">
        <request index="0"  response="000011100000" foes="000011100000" cont="0"/>
        <request index="1"  response="000011100000" foes="000011100000" cont="0"/>
        <request index="2"  response="111111100000" foes="111111100000" cont="0"/>
        <request index="3"  response="111111100000" foes="111111100000" cont="0"/>
        <request index="4"  response="000000000000" foes="000000000000" cont="0"/>
        <request index="5"  response="000000000000" foes="100000001111" cont="0"/>
        <request index="6"  response="000000000000" foes="100000001111" cont="0"/>
        <request index="7"  response="000000000000" foes="100000001111" cont="0"/>
        <request index="8"  response="000000000000" foes="000000001100" cont="0"/>
        <request index="9"  response="000000000000" foes="000000001100" cont="0"/>
        <request index="10" response="000000000000" foes="000000001100" cont="0"/>
        <request index="11" response="000011100000" foes="000011101100" cont="1"/>
    </junction>
    <junction id="BT" type="dead_end" x="200.00" y="200.00" incLanes="B_BT_0 B_BT_1" intLanes="" shape="200.00,200.00 206.40,200.00 200.00,200.00"/>
    <junction id="C" type="traffic_light" x="300.00" y="100.00" incLanes="CT_C_0 CT_C_1 CT_C_2 CR_C_0 CR_C_1 CR_C_2 D_C_0 D_C_1 B_C_0 B_C_1 B_C_2" intLanes=":C_0_0 :C_1_0 :C_1_1 :C_18_0 :C_4_0 :C_5_0 :C_5_1 :C_5_2 :C_19_0 :C_9_0 :C_10_0 :C_10_1 :C_20_0 :C_13_0 :C_14_0 :C_14_1 :C_14_2 :C_21_0" shape="290.40,113.60 306.40,113.60 306.84,111.38 307.40,110.60 308.18,110.04 309.18,109.71 310.40,109.60 310.40,90.40 308.18,89.96 307.40,89.40 306.84,88.62 306.51,87.62 306.40,86.40 293.60,86.40 292.80,88.62 291.80,89.40 290.40,89.96 288.60,90.29 286.40,90.40 286.40,109.60 288.62,110.04 289.40,110.60 289.96,111.38 290.29,112.38">
        <request index="0"  response="000000000011100000" foes="000000000011100000" cont="0"/>
        <request index="1"  response="111110000111100000" foes="111111000111100000" cont="0"/>
        <request index="2"  response="111110000111100000" foes="111111000111100000" cont="0"/>
        <request index="3"  response="111100110111100000" foes="111100110111100000" cont="1"/>
        <request index="4"  response="000000000000000000" foes="000000110000000000" cont="0"/>
        <request index="5"  response="000001000000001000" foes="100001110000001111" cont="0"/>
        <request index="6"  response="000001000000001000" foes="100001110000001111" cont="0"/>
        <request index="7"  response="000001000000001000" foes="100001110000001111" cont="0"/>
        <request index="8"  response="011101000000001000" foes="011101110000001110" cont="1"/>
        <request index="9"  response="011100000000000000" foes="011100000000000000" cont="0"/>
        <request index="10" response="111100000111110000" foes="111100000111111000" cont="0"/>
        <request index="11" response="111100000111110000" foes="111100000111111000" cont="0"/>
        <request index="12" response="111100000111100110" foes="111100000111100110" cont="1"/>
        <request index="13" response="000000000000000000" foes="000000000000000110" cont="0"/>
        <request index="14" response="000001000000001000" foes="000001111100001110" cont="0"/>
        <request index="15" response="000001000000001000" foes="000001111100001110" cont="0"/>
        <request index="16" response="000001000000001000" foes="000001111100001110" cont="0"/>
        <request index="17" response="000001000011101000" foes="000001110011101110" cont="1"/>
    </junction>
    <junction id="CR" type="dead_end" x="400.00" y="100.00" incLanes="C_CR_0 C_CR_1 C_CR_2" intLanes="" shape="400.00,100.00 400.00,90.40 400.00,100.00"/>
    <junction id="CT" type="dead_end" x="300.00" y="200.00" incLanes="C_CT_0 C_CT_1" intLanes="" shape="300.00,200.00 306.40,200.00 300.00,200.00"/>
    <junction id="D" type="priority" x="300.00" y="0.00" incLanes="C_D_0 C_D_1 DR_D_0 DR_D_1 E_D_0 E_D_1" intLanes=":D_0_0 :D_1_0 :D_2_0 :D_3_0 :D_3_1 :D_5_0 :D_5_1 :D_8_0" shape="293.60,10.40 306.40,10.40 306.84,8.18 307.40,7.40 308.18,6.84 309.18,6.51 310.40,6.40 310.40,-6.40 289.60,-6.40 289.60,6.40 291.82,6.84 292.60,7.40 293.16,8.18 293.49,9.18">
        <request index="0" response="00011000" foes="00011000" cont="0"/>
        <request index="1" response="11111000" foes="11111000" cont="0"/>
        <request index="2" response="00000000" foes="00000000" cont="0"/>
        <request index="3" response="00000000" foes="10000011" cont="0"/>