<?xml version="1.0" encoding="UTF-8"?>

<!-- generated on 10/11/20 19:25:32 by Eclipse SUMO netconvert Version 1.6.0
<configuration xmlns:xsi="http://www.w3.org/2001/XMLSchema-instance" xsi:noNamespaceSchemaLocation="http://sumo.dlr.de/xsd/netconvertConfiguration.xsd">

    <input>
        <node-files value="smartcities.nod.xml"/>
        <edge-files value="smartcities.edg.xml"/>
        <tllogic-files value="smartcities.tls.xml"/>
        <type-files value="smartcities.typ.xml"/>
    </input>

    <output>
        <output-file value="smartcities.net.xml"/>
    </output>

    <junctions>
        <no-turnarounds value="true"/>
    </junctions>

    <report>
        <aggregate-warnings value="5"/>
    </report>

</configuration>
-->

<net version="1.6" junctionCornerDetail="5" limitTurnSpeed="5.50" xmlns:xsi="http://www.w3.org/2001/XMLSchema-instance" xsi:noNamespaceSchemaLocation="http://sumo.dlr.de/xsd/net_file.xsd">

    <location netOffset="0.00,200.00" convBoundary="0.00,0.00,400.00,300.00" origBoundary="0.00,-200.00,400.00,100.00" projParameter="!"/>

    <type id="Alone" numLanes="1" speed="15.00"/>
    <type id="Double" numLanes="2" speed="15.00"/>
    <type id="Triple" numLanes="3" speed="15.00"/>

    <edge id=":A_0" function="internal">
        <lane id=":A_0_0" index="0" speed="6.51" length="9.03" shape="95.20,213.60 94.85,211.15 93.80,209.40 92.05,208.35 89.60,208.00"/>
    </edge>
    <edge id=":A_1" function="internal">
        <lane id=":A_1_0" index="0" speed="15.00" length="27.20" shape="95.20,213.60 95.20,186.40"/>
        <lane id=":A_1_1" index="1" speed="15.00" length="27.20" shape="98.40,213.60 98.40,186.40"/>
    </edge>
    <edge id=":A_3" function="internal">
        <lane id=":A_3_0" index="0" speed="9.84" length="4.03" shape="98.40,213.60 98.85,209.60"/>
    </edge>
    <edge id=":A_18" function="internal">
        <lane id=":A_18_0" index="0" speed="9.84" length="17.97" shape="98.85,209.60 99.15,206.95 101.40,202.20 105.15,199.35 110.40,198.40"/>
    </edge>
    <edge id=":A_4" function="internal">
        <lane id=":A_4_0" index="0" speed="6.51" length="9.03" shape="110.40,208.00 107.95,208.35 106.20,209.40 105.15,211.15 104.80,213.60"/>
    </edge>
    <edge id=":A_5" function="internal">
        <lane id=":A_5_0" index="0" speed="15.00" length="20.80" shape="110.40,208.00 89.60,208.00"/>
        <lane id=":A_5_1" index="1" speed="15.00" length="20.80" shape="110.40,204.80 89.60,204.80"/>
        <lane id=":A_5_2" index="2" speed="15.00" length="20.80" shape="110.40,201.60 89.60,201.60"/>
    </edge>
    <edge id=":A_8" function="internal">
        <lane id=":A_8_0" index="0" speed="9.84" length="6.41" shape="110.40,201.60 105.15,200.65 104.29,200.00"/>
    </edge>
    <edge id=":A_19" function="internal">
        <lane id=":A_19_0" index="0" speed="9.84" length="15.58" shape="104.29,200.00 101.40,197.80 99.15,193.05 98.40,186.40"/>
    </edge>
    <edge id=":A_9" function="internal">
        <lane id=":A_9_0" index="0" speed="6.51" length="9.03" shape="104.80,186.40 105.15,188.85 106.20,190.60 107.95,191.65 110.40,192.00"/>
    </edge>
    <edge id=":A_10" function="internal">
        <lane id=":A_10_0" index="0" speed="15.00" length="27.20" shape="104.80,186.40 104.80,213.60"/>
        <lane id=":A_10_1" index="1" speed="15.00" length="27.20" shape="101.60,186.40 101.60,213.60"/>
    </edge>
    <edge id=":A_12" function="internal">
        <lane id=":A_12_0" index="0" speed="9.84" length="4.03" shape="101.60,186.40 101.15,190.40"/>
    </edge>
    <edge id=":A_20" function="internal">
        <lane id=":A_20_0" index="0" speed="9.84" length="17.97" shape="101.15,190.40 100.85,193.05 98.60,197.80 94.85,200.65 89.60,201.60"/>
    </edge>
    <edge id=":A_13" function="internal">
        <lane id=":A_13_0" index="0" speed="6.51" length="9.03" shape="89.60,192.00 92.05,191.65 93.80,190.60 94.85,188.85 95.20,186.40"/>
    </edge>
    <edge id=":A_14" function="internal">
        <lane id=":A_14_0" index="0" speed="15.00" length="20.80" shape="89.60,192.00 110.40,192.00"/>
        <lane id=":A_14_1" index="1" speed="15.00" length="20.80" shape="89.60,195.20 110.40,195.20"/>
        <lane id=":A_14_2" index="2" speed="15.00" length="20.80" shape="89.60,198.40 110.40,198.40"/>
    </edge>
    <edge id=":A_17" function="internal">
        <lane id=":A_17_0" index="0" speed="9.84" length="6.41" shape="89.60,198.40 94.85,199.35 95.71,200.00"/>
    </edge>
    <edge id=":A_21" function="internal">
        <lane id=":A_21_0" index="0" speed="9.84" length="15.58" shape="95.71,200.00 98.60,202.20 100.85,206.95 101.60,213.60"/>
    </edge>
    <edge id=":B_0" function="internal">
        <lane id=":B_0_0" index="0" speed="6.51" length="9.03" shape="195.20,213.60 194.85,211.15 193.80,209.40 192.05,208.35 189.60,208.00"/>
    </edge>
    <edge id=":B_1" function="internal">
        <lane id=":B_1_0" index="0" speed="8.00" length="14.19" shape="198.40,213.60 197.85,209.75 196.20,207.00 193.45,205.35 189.60,204.80"/>
    </edge>
    <edge id=":B_2" function="internal">
        <lane id=":B_2_0" index="0" speed="10.41" length="4.02" shape="198.40,213.60 198.77,209.60"/>
    </edge>
    <edge id=":B_3" function="internal">
        <lane id=":B_3_0" index="0" speed="9.84" length="4.03" shape="198.40,213.60 198.85,209.60"/>
    </edge>
    <edge id=":B_12" function="internal">
        <lane id=":B_12_0" index="0" speed="10.41" length="20.71" shape="198.77,209.60 199.15,205.55 201.40,199.80 205.15,196.35 210.40,195.20"/>
    </edge>
    <edge id=":B_13" function="internal">
        <lane id=":B_13_0" index="0" speed="9.84" length="17.97" shape="198.85,209.60 199.15,206.95 201.40,202.20 205.15,199.35 210.40,198.40"/>
    </edge>
    <edge id=":B_4" function="internal">
        <lane id=":B_4_0" index="0" speed="6.51" length="9.03" shape="210.40,208.00 207.95,208.35 206.20,209.40 205.15,211.15 204.80,213.60"/>
    </edge>
    <edge id=":B_5" function="internal">
        <lane id=":B_5_0" index="0" speed="15.00" length="20.80" shape="210.40,208.00 189.60,208.00"/>
        <lane id=":B_5_1" index="1" speed="15.00" length="20.80" shape="210.40,204.80 189.60,204.80"/>
        <lane id=":B_5_2" index="2" speed="15.00" length="20.80" shape="210.40,201.60 189.60,201.60"/>
    </edge>
    <edge id=":B_8" function="internal">
        <lane id=":B_8_0" index="0" speed="15.00" length="20.80" shape="189.60,192.00 210.40,192.00"/>
        <lane id=":B_8_1" index="1" speed="15.00" length="20.80" shape="189.60,195.20 210.40,195.20"/>
        <lane id=":B_8_2" index="2" speed="15.00" length="20.80" shape="189.60,198.40 210.40,198.40"/>
    </edge>
    <edge id=":B_11" function="internal">
        <lane id=":B_11_0" index="0" speed="9.84" length="6.41" shape="189.60,198.40 194.85,199.35 195.71,200.00"/>
    </edge>
    <edge id=":B_14" function="internal">
        <lane id=":B_14_0" index="0" speed="9.84" length="15.58" shape="195.71,200.00 198.60,202.20 200.85,206.95 201.60,213.60"/>
    </edge>
    <edge id=":C_0" function="internal">
        <lane id=":C_0_0" index="0" speed="6.51" length="9.03" shape="295.20,213.60 294.85,211.15 293.80,209.40 292.05,208.35 289.60,208.00"/>
    </edge>
    <edge id=":C_1" function="internal">
        <lane id=":C_1_0" index="0" speed="15.00" length="27.20" shape="295.20,213.60 295.20,186.40"/>
        <lane id=":C_1_1" index="1" speed="15.00" length="27.20" shape="298.40,213.60 298.40,186.40"/>
    </edge>
    <edge id=":C_3" function="internal">
        <lane id=":C_3_0" index="0" speed="9.84" length="4.03" shape="298.40,213.60 298.85,209.60"/>
    </edge>
    <edge id=":C_18" function="internal">
        <lane id=":C_18_0" index="0" speed="9.84" length="17.97" shape="298.85,209.60 299.15,206.95 301.40,202.20 305.15,199.35 310.40,198.40"/>
    </edge>
    <edge id=":C_4" function="internal">
        <lane id=":C_4_0" index="0" speed="6.51" length="9.03" shape="310.40,208.00 307.95,208.35 306.20,209.40 305.15,211.15 304.80,213.60"/>
    </edge>
    <edge id=":C_5" function="internal">
        <lane id=":C_5_0" index="0" speed="15.00" length="20.80" shape="310.40,208.00 289.60,208.00"/>
        <lane id=":C_5_1" index="1" speed="15.00" length="20.80" shape="310.40,204.80 289.60,204.80"/>
        <lane id=":C_5_2" index="2" speed="15.00" length="20.80" shape="310.40,201.60 289.60,201.60"/>
    </edge>
    <edge id=":C_8" function="internal">
        <lane id=":C_8_0" index="0" speed="9.84" length="6.41" shape="310.40,201.60 305.15,200.65 304.29,200.00"/>
    </edge>
    <edge id=":C_19" function="internal">
        <lane id=":C_19_0" index="0" speed="9.84" length="15.58" shape="304.29,200.00 301.40,197.80 299.15,193.05 298.40,186.40"/>
    </edge>
    <edge id=":C_9" function="internal">
        <lane id=":C_9_0" index="0" speed="6.51" length="9.03" shape="304.80,186.40 305.15,188.85 306.20,190.60 307.95,191.65 310.40,192.00"/>
    </edge>
    <edge id=":C_10" function="internal">
        <lane id=":C_10_0" index="0" speed="15.00" length="27.20" shape="304.80,186.40 304.80,213.60"/>
        <lane id=":C_10_1" index="1" speed="15.00" length="27.20" shape="301.60,186.40 301.60,213.60"/>
    </edge>
    <edge id=":C_12" function="internal">
        <lane id=":C_12_0" index="0" speed="9.84" length="4.03" shape="301.60,186.40 301.15,190.40"/>
    </edge>
    <edge id=":C_20" function="internal">
        <lane id=":C_20_0" index="0" speed="9.84" length="17.97" shape="301.15,190.40 300.85,193.05 298.60,197.80 294.85,200.65 289.60,201.60"/>
    </edge>
    <edge id=":C_13" function="internal">
        <lane id=":C_13_0" index="0" speed="6.51" length="9.03" shape="289.60,192.00 292.05,191.65 293.80,190.60 294.85,188.85 295.20,186.40"/>
    </edge>
    <edge id=":C_14" function="internal">
        <lane id=":C_14_0" index="0" speed="15.00" length="20.80" shape="289.60,192.00 310.40,192.00"/>
        <lane id=":C_14_1" index="1" speed="15.00" length="20.80" shape="289.60,195.20 310.40,195.20"/>
        <lane id=":C_14_2" index="2" speed="15.00" length="20.80" shape="289.60,198.40 310.40,198.40"/>
    </edge>
    <edge id=":C_17" function="internal">
        <lane id=":C_17_0" index="0" speed="9.84" length="6.41" shape="289.60,198.40 294.85,199.35 295.71,200.00"/>
    </edge>
    <edge id=":C_21" function="internal">
        <lane id=":C_21_0" index="0" speed="9.84" length="15.58" shape="295.71,200.00 298.60,202.20 300.85,206.95 301.60,213.60"/>
    </edge>
    <edge id=":D_0" function="internal">
        <lane id=":D_0_0" index="0" speed="6.51" length="9.03" shape="295.20,110.40 294.85,107.95 293.80,106.20 292.05,105.15 289.60,104.80"/>
    </edge>
    <edge id=":D_1" function="internal">
        <lane id=":D_1_0" index="0" speed="15.00" length="20.80" shape="295.20,110.40 295.20,89.60"/>
        <lane id=":D_1_1" index="1" speed="15.00" length="20.80" shape="298.40,110.40 298.40,89.60"/>
    </edge>
    <edge id=":D_3" function="internal">
        <lane id=":D_3_0" index="0" speed="9.26" length="6.96" shape="298.40,110.40 299.15,105.15 300.00,103.73"/>
    </edge>
    <edge id=":D_16" function="internal">
        <lane id=":D_16_0" index="0" speed="9.26" length="12.40" shape="300.00,103.73 301.40,101.40 305.15,99.15 310.40,98.40"/>
    </edge>
    <edge id=":D_4" function="internal">
        <lane id=":D_4_0" index="0" speed="6.51" length="9.03" shape="310.40,104.80 307.95,105.15 306.20,106.20 305.15,107.95 304.80,110.40"/>
    </edge>
    <edge id=":D_5" function="internal">
        <lane id=":D_5_0" index="0" speed="15.00" length="20.80" shape="310.40,104.80 289.60,104.80"/>
        <lane id=":D_5_1" index="1" speed="15.00" length="20.80" shape="310.40,101.60 289.60,101.60"/>
    </edge>
    <edge id=":D_7" function="internal">
        <lane id=":D_7_0" index="0" speed="9.26" length="19.35" shape="310.40,101.60 305.15,100.85 301.40,98.60 299.15,94.85 298.40,89.60"/>
    </edge>
    <edge id=":D_8" function="internal">
        <lane id=":D_8_0" index="0" speed="6.51" length="9.03" shape="304.80,89.60 305.15,92.05 306.20,93.80 307.95,94.85 310.40,95.20"/>
    </edge>
    <edge id=":D_9" function="internal">
        <lane id=":D_9_0" index="0" speed="15.00" length="20.80" shape="304.80,89.60 304.80,110.40"/>
        <lane id=":D_9_1" index="1" speed="15.00" length="20.80" shape="301.60,89.60 301.60,110.40"/>
    </edge>
    <edge id=":D_11" function="internal">
        <lane id=":D_11_0" index="0" speed="9.26" length="6.96" shape="301.60,89.60 300.85,94.85 300.00,96.27"/>
    </edge>
    <edge id=":D_17" function="internal">
        <lane id=":D_17_0" index="0" speed="9.26" length="12.40" shape="300.00,96.27 298.60,98.60 294.85,100.85 289.60,101.60"/>
    </edge>
    <edge id=":D_12" function="internal">
        <lane id=":D_12_0" index="0" speed="6.51" length="9.03" shape="289.60,95.20 292.05,94.85 293.80,93.80 294.85,92.05 295.20,89.60"/>
    </edge>
    <edge id=":D_13" function="internal">
        <lane id=":D_13_0" index="0" speed="15.00" length="20.80" shape="289.60,95.20 310.40,95.20"/>
        <lane id=":D_13_1" index="1" speed="15.00" length="20.80" shape="289.60,98.40 310.40,98.40"/>
    </edge>
    <edge id=":D_15" function="internal">
        <lane id=":D_15_0" index="0" speed="9.26" length="19.35" shape="289.60,98.40 294.85,99.15 298.60,101.40 300.85,105.15 301.60,110.40"/>
    </edge>
    <edge id=":E_0" function="internal">
        <lane id=":E_0_0" index="0" speed="15.00" length="20.80" shape="210.40,104.80 189.60,104.80"/>
        <lane id=":E_0_1" index="1" speed="15.00" length="20.80" shape="210.40,101.60 189.60,101.60"/>
    </edge>
    <edge id=":E_2" function="internal">
        <lane id=":E_2_0" index="0" speed="9.26" length="6.96" shape="210.40,101.60 205.15,100.85 203.73,100.00"/>
    </edge>
    <edge id=":E_9" function="internal">
        <lane id=":E_9_0" index="0" speed="9.26" length="12.40" shape="203.73,100.00 201.40,98.60 199.15,94.85 198.40,89.60"/>
    </edge>
    <edge id=":E_3" function="internal">
        <lane id=":E_3_0" index="0" speed="6.51" length="9.03" shape="204.80,89.60 205.15,92.05 206.20,93.80 207.95,94.85 210.40,95.20"/>
    </edge>
    <edge id=":E_4" function="internal">
        <lane id=":E_4_0" index="0" speed="8.00" length="14.19" shape="201.60,89.60 202.15,93.45 203.80,96.20 206.55,97.85 210.40,98.40"/>
    </edge>
    <edge id=":E_5" function="internal">
        <lane id=":E_5_0" index="0" speed="9.26" length="4.04" shape="201.60,89.60 201.03,93.60"/>
    </edge>
    <edge id=":E_10" function="internal">
        <lane id=":E_10_0" index="0" speed="9.26" length="15.31" shape="201.03,93.60 200.85,94.85 198.60,98.60 194.85,100.85 189.60,101.60"/>
    </edge>
    <edge id=":E_6" function="internal">
        <lane id=":E_6_0" index="0" speed="6.51" length="9.03" shape="189.60,95.20 192.05,94.85 193.80,93.80 194.85,92.05 195.20,89.60"/>
    </edge>
    <edge id=":E_7" function="internal">
        <lane id=":E_7_0" index="0" speed="15.00" length="20.80" shape="189.60,95.20 210.40,95.20"/>
        <lane id=":E_7_1" index="1" speed="15.00" length="20.80" shape="189.60,98.40 210.40,98.40"/>
    </edge>
    <edge id=":F_0" function="internal">
        <lane id=":F_0_0" index="0" speed="6.51" length="9.03" shape="95.20,110.40 94.85,107.95 93.80,106.20 92.05,105.15 89.60,104.80"/>
    </edge>
    <edge id=":F_1" function="internal">
        <lane id=":F_1_0" index="0" speed="15.00" length="20.80" shape="95.20,110.40 95.20,89.60"/>
        <lane id=":F_1_1" index="1" speed="15.00" length="20.80" shape="98.40,110.40 98.40,89.60"/>
    </edge>
    <edge id=":F_3" function="internal">
        <lane id=":F_3_0" index="0" speed="9.26" length="6.96" shape="98.40,110.40 99.15,105.15 100.00,103.73"/>
    </edge>
    <edge id=":F_16" function="internal">
        <lane id=":F_16_0" index="0" speed="9.26" length="12.40" shape="100.00,103.73 101.40,101.40 105.15,99.15 110.40,98.40"/>
    </edge>
    <edge id=":F_4" function="internal">
        <lane id=":F_4_0" index="0" speed="6.51" length="9.03" shape="110.40,104.80 107.95,105.15 106.20,106.20 105.15,107.95 104.80,110.40"/>
    </edge>
    <edge id=":F_5" function="internal">
        <lane id=":F_5_0" index="0" speed="15.00" length="20.80" shape="110.40,104.80 89.60,104.80"/>
        <lane id=":F_5_1" index="1" speed="15.00" length="20.80" shape="110.40,101.60 89.60,101.60"/>
    </edge>
    <edge id=":F_7" function="internal">
        <lane id=":F_7_0" index="0" speed="9.26" length="4.04" shape="110.40,101.60 106.40,101.03"/>
    </edge>
    <edge id=":F_17" function="internal">
        <lane id=":F_17_0" index="0" speed="9.26" length="15.31" shape="106.40,101.03 105.15,100.85 101.40,98.60 99.15,94.85 98.40,89.60"/>
    </edge>
    <edge id=":F_8" function="internal">
        <lane id=":F_8_0" index="0" speed="6.51" length="9.03" shape="104.80,89.60 105.15,92.05 106.20,93.80 107.95,94.85 110.40,95.20"/>
    </edge>
    <edge id=":F_9" function="internal">
        <lane id=":F_9_0" index="0" speed="15.00" length="20.80" shape="104.80,89.60 104.80,110.40"/>
        <lane id=":F_9_1" index="1" speed="15.00" length="20.80" shape="101.60,89.60 101.60,110.40"/>
    </edge>
    <edge id=":F_11" function="internal">
        <lane id=":F_11_0" index="0" speed="9.26" length="6.96" shape="101.60,89.60 100.85,94.85 100.00,96.27"/>
    </edge>
    <edge id=":F_18" function="internal">
        <lane id=":F_18_0" index="0" speed="9.26" length="12.40" shape="100.00,96.27 98.60,98.60 94.85,100.85 89.60,101.60"/>
    </edge>
    <edge id=":F_12" function="internal">
        <lane id=":F_12_0" index="0" speed="6.51" length="9.03" shape="89.60,95.20 92.05,94.85 93.80,93.80 94.85,92.05 95.20,89.60"/>
    </edge>
    <edge id=":F_13" function="internal">
        <lane id=":F_13_0" index="0" speed="15.00" length="20.80" shape="89.60,95.20 110.40,95.20"/>
        <lane id=":F_13_1" index="1" speed="15.00" length="20.80" shape="89.60,98.40 110.40,98.40"/>
    </edge>
    <edge id=":F_15" function="internal">
        <lane id=":F_15_0" index="0" speed="9.26" length="4.04" shape="89.60,98.40 93.60,98.97"/>
    </edge>
    <edge id=":F_19" function="internal">
        <lane id=":F_19_0" index="0" speed="9.26" length="15.31" shape="93.60,98.97 94.85,99.15 98.60,101.40 100.85,105.15 101.60,110.40"/>
    </edge>

    <edge id="AL_A" from="AL" to="A" priority="-1" type="Triple">
        <lane id="AL_A_0" index="0" speed="15.00" length="89.60" shape="0.00,192.00 89.60,192.00"/>
        <lane id="AL_A_1" index="1" speed="15.00" length="89.60" shape="0.00,195.20 89.60,195.20"/>
        <lane id="AL_A_2" index="2" speed="15.00" length="89.60" shape="0.00,198.40 89.60,198.40"/>
    </edge>
    <edge id="AT_A" from="AT" to="A" priority="-1" type="Double">
        <lane id="AT_A_0" index="0" speed="15.00" length="86.40" shape="95.20,300.00 95.20,213.60"/>
        <lane id="AT_A_1" index="1" speed="15.00" length="86.40" shape="98.40,300.00 98.40,213.60"/>
    </edge>
    <edge id="A_AL" from="A" to="AL" priority="-1" type="Triple">
        <lane id="A_AL_0" index="0" speed="15.00" length="89.60" shape="89.60,208.00 0.00,208.00"/>
        <lane id="A_AL_1" index="1" speed="15.00" length="89.60" shape="89.60,204.80 0.00,204.80"/>
        <lane id="A_AL_2" index="2" speed="15.00" length="89.60" shape="89.60,201.60 0.00,201.60"/>
    </edge>
    <edge id="A_AT" from="A" to="AT" priority="-1" type="Double">
        <lane id="A_AT_0" index="0" speed="15.00" length="86.40" shape="104.80,213.60 104.80,300.00"/>
        <lane id="A_AT_1" index="1" speed="15.00" length="86.40" shape="101.60,213.60 101.60,300.00"/>
    </edge>
    <edge id="A_B" from="A" to="B" priority="-1" type="Triple">
        <lane id="A_B_0" index="0" speed="15.00" length="79.20" shape="110.40,192.00 189.60,192.00"/>
        <lane id="A_B_1" index="1" speed="15.00" length="79.20" shape="110.40,195.20 189.60,195.20"/>
        <lane id="A_B_2" index="2" speed="15.00" length="79.20" shape="110.40,198.40 189.60,198.40"/>
    </edge>
    <edge id="A_F" from="A" to="F" priority="-1" type="Double">
        <lane id="A_F_0" index="0" speed="15.00" length="76.00" shape="95.20,186.40 95.20,110.40"/>
        <lane id="A_F_1" index="1" speed="15.00" length="76.00" shape="98.40,186.40 98.40,110.40"/>
    </edge>
    <edge id="BT_B" from="BT" to="B" priority="-1" type="Double">
        <lane id="BT_B_0" index="0" speed="15.00" length="86.40" shape="195.20,300.00 195.20,213.60"/>
        <lane id="BT_B_1" index="1" speed="15.00" length="86.40" shape="198.40,300.00 198.40,213.60"/>
    </edge>
    <edge id="B_A" from="B" to="A" priority="-1" type="Triple">
        <lane id="B_A_0" index="0" speed="15.00" length="79.20" shape="189.60,208.00 110.40,208.00"/>
        <lane id="B_A_1" index="1" speed="15.00" length="79.20" shape="189.60,204.80 110.40,204.80"/>
        <lane id="B_A_2" index="2" speed="15.00" length="79.20" shape="189.60,201.60 110.40,201.60"/>
    </edge>
    <edge id="B_BT" from="B" to="BT" priority="-1" type="Double">
        <lane id="B_BT_0" index="0" speed="15.00" length="86.40" shape="204.80,213.60 204.80,300.00"/>
        <lane id="B_BT_1" index="1" speed="15.00" length="86.40" shape="201.60,213.60 201.60,300.00"/>
    </edge>
    <edge id="B_C" from="B" to="C" priority="-1" type="Triple">
        <lane id="B_C_0" index="0" speed="15.00" length="79.20" shape="210.40,192.00 289.60,192.00"/>
        <lane id="B_C_1" index="1" speed="15.00" length="79.20" shape="210.40,195.20 289.60,195.20"/>
        <lane id="B_C_2" index="2" speed="15.00" length="79.20" shape="210.40,198.40 289.60,198.40"/>
    </edge>
    <edge id="CR_C" from="CR" to="C" priority="-1" type="Triple">
        <lane id="CR_C_0" index="0" speed="15.00" length="89.60" shape="400.00,208.00 310.40,208.00"/>
        <lane id="CR_C_1" index="1" speed="15.00" length="89.60" shape="400.00,204.80 310.40,204.80"/>
        <lane id="CR_C_2" index="2" speed="15.00" length="89.60" shape="400.00,201.60 310.40,201.60"/>
    </edge>
    <edge id="CT_C" from="CT" to="C" priority="-1" type="Double">
        <lane id="CT_C_0" index="0" speed="15.00" length="86.40" shape="295.20,300.00 295.20,213.60"/>
        <lane id="CT_C_1" index="1" speed="15.00" length="86.40" shape="298.40,300.00 298.40,213.60"/>
    </edge>
    <edge id="C_B" from="C" to="B" priority="-1" type="Triple">
        <lane id="C_B_0" index="0" speed="15.00" length="79.20" shape="289.60,208.00 210.40,208.00"/>
        <lane id="C_B_1" index="1" speed="15.00" length="79.20" shape="289.60,204.80 210.40,204.80"/>
        <lane id="C_B_2" index="2" speed="15.00" length="79.20" shape="289.60,201.60 210.40,201.60"/>
    </edge>
    <edge id="C_CR" from="C" to="CR" priority="-1" type="Triple">
        <lane id="C_CR_0" index="0" speed="15.00" length="89.60" shape="310.40,192.00 400.00,192.00"/>
        <lane id="C_CR_1" index="1" speed="15.00" length="89.60" shape="310.40,195.20 400.00,195.20"/>
        <lane id="C_CR_2" index="2" speed="15.00" length="89.60" shape="310.40,198.40 400.00,198.40"/>
    </edge>
    <edge id="C_CT" from="C" to="CT" priority="-1" type="Double">
        <lane id="C_CT_0" index="0" speed="15.00" length="86.40" shape="304.80,213.60 304.80,300.00"/>
        <lane id="C_CT_1" index="1" speed="15.00" length="86.40" shape="301.60,213.60 301.60,300.00"/>
    </edge>
    <edge id="C_D" from="C" to="D" priority="-1" type="Double">
        <lane id="C_D_0" index="0" speed="15.00" length="76.00" shape="295.20,186.40 295.20,110.40"/>
        <lane id="C_D_1" index="1" speed="15.00" length="76.00" shape="298.40,186.40 298.40,110.40"/>
    </edge>
    <edge id="DB_D" from="DB" to="D" priority="-1" type="Double">
        <lane id="DB_D_0" index="0" speed="15.00" length="89.60" shape="304.80,0.00 304.80,89.60"/>
        <lane id="DB_D_1" index="1" speed="15.00" length="89.60" shape="301.60,0.00 301.60,89.60"/>
    </edge>
    <edge id="DR_D" from="DR" to="D" priority="-1" type="Double">
        <lane id="DR_D_0" index="0" speed="15.00" length="89.60" shape="400.00,104.80 310.40,104.80"/>
        <lane id="DR_D_1" index="1" speed="15.00" length="89.60" shape="400.00,101.60 310.40,101.60"/>
    </edge>
    <edge id="D_C" from="D" to="C" priority="-1" type="Double">
        <lane id="D_C_0" index="0" speed="15.00" length="76.00" shape="304.80,110.40 304.80,186.40"/>
        <lane id="D_C_1" index="1" speed="15.00" length="76.00" shape="301.60,110.40 301.60,186.40"/>
    </edge>
    <edge id="D_DB" from="D" to="DB" priority="-1" type="Double">
        <lane id="D_DB_0" index="0" speed="15.00" length="89.60" shape="295.20,89.60 295.20,0.00"/>
        <lane id="D_DB_1" index="1" speed="15.00" length="89.60" shape="298.40,89.60 298.40,0.00"/>
    </edge>
    <edge id="D_DR" from="D" to="DR" priority="-1" type="Double">
        <lane id="D_DR_0" index="0" speed="15.00" length="89.60" shape="310.40,95.20 400.00,95.20"/>
        <lane id="D_DR_1" index="1" speed="15.00" length="89.60" shape="310.40,98.40 400.00,98.40"/>
    </edge>
    <edge id="D_E" from="D" to="E" priority="-1" type="Double">
        <lane id="D_E_0" index="0" speed="15.00" length="79.20" shape="289.60,104.80 210.40,104.80"/>
        <lane id="D_E_1" index="1" speed="15.00" length="79.20" shape="289.60,101.60 210.40,101.60"/>
    </edge>
    <edge id="EB_E" from="EB" to="E" priority="-1" type="Double">
        <lane id="EB_E_0" index="0" speed="15.00" length="89.60" shape="204.80,0.00 204.80,89.60"/>
        <lane id="EB_E_1" index="1" speed="15.00" length="89.60" shape="201.60,0.00 201.60,89.60"/>
    </edge>
    <edge id="E_D" from="E" to="D" priority="-1" type="Double">
        <lane id="E_D_0" index="0" speed="15.00" length="79.20" shape="210.40,95.20 289.60,95.20"/>
        <lane id="E_D_1" index="1" speed="15.00" length="79.20" shape="210.40,98.40 289.60,98.40"/>
    </edge>
    <edge id="E_EB" from="E" to="EB" priority="-1" type="Double">
        <lane id="E_EB_0" index="0" speed="15.00" length="89.60" shape="195.20,89.60 195.20,0.00"/>
        <lane id="E_EB_1" index="1" speed="15.00" length="89.60" shape="198.40,89.60 198.40,0.00"/>
    </edge>
    <edge id="E_F" from="E" to="F" priority="-1" type="Double">
        <lane id="E_F_0" index="0" speed="15.00" length="79.20" shape="189.60,104.80 110.40,104.80"/>
        <lane id="E_F_1" index="1" speed="15.00" length="79.20" shape="189.60,101.60 110.40,101.60"/>
    </edge>
    <edge id="FB_F" from="FB" to="F" priority="-1" type="Double">
        <lane id="FB_F_0" index="0" speed="15.00" length="89.60" shape="104.80,0.00 104.80,89.60"/>
        <lane id="FB_F_1" index="1" speed="15.00" length="89.60" shape="101.60,0.00 101.60,89.60"/>
    </edge>
    <edge id="FL_F" from="FL" to="F" priority="-1" type="Double">
        <lane id="FL_F_0" index="0" speed="15.00" length="89.60" shape="0.00,95.20 89.60,95.20"/>
        <lane id="FL_F_1" index="1" speed="15.00" length="89.60" shape="0.00,98.40 89.60,98.40"/>
    </edge>
    <edge id="F_A" from="F" to="A" priority="-1" type="Double">
        <lane id="F_A_0" index="0" speed="15.00" length="76.00" shape="104.80,110.40 104.80,186.40"/>
        <lane id="F_A_1" index="1" speed="15.00" length="76.00" shape="101.60,110.40 101.60,186.40"/>
    </edge>
    <edge id="F_E" from="F" to="E" priority="-1" type="Double">
        <lane id="F_E_0" index="0" speed="15.00" length="79.20" shape="110.40,95.20 189.60,95.20"/>
        <lane id="F_E_1" index="1" speed="15.00" length="79.20" shape="110.40,98.40 189.60,98.40"/>
    </edge>
    <edge id="F_FB" from="F" to="FB" priority="-1" type="Double">
        <lane id="F_FB_0" index="0" speed="15.00" length="89.60" shape="95.20,89.60 95.20,0.00"/>
        <lane id="F_FB_1" index="1" speed="15.00" length="89.60" shape="98.40,89.60 98.40,0.00"/>
    </edge>
    <edge id="F_FL" from="F" to="FL" priority="-1" type="Double">
        <lane id="F_FL_0" index="0" speed="15.00" length="89.60" shape="89.60,104.80 0.00,104.80"/>
        <lane id="F_FL_1" index="1" speed="15.00" length="89.60" shape="89.60,101.60 0.00,101.60"/>
    </edge>

    <tlLogic id="A" type="actuated" programID="A_TLS" offset="0">
        <phase duration="1"  state="rrrrrrrrrrrrrrrrrr"/>
        <phase duration="2"  state="yyyyyyyyyyyyyyyyyy"/>
        <phase duration="1"  state="gggggggggggggggggg"/>
    </tlLogic>
    <tlLogic id="B" type="actuated" programID="B_TLS" offset="0">
        <phase duration="1"  state="rrrrrrrrrrrr"/>
        <phase duration="2"  state="yyyyyyyyyyyy"/>
        <phase duration="1"  state="gggggggggggg"/>
    </tlLogic>
    <tlLogic id="C" type="actuated" programID="C_TLS" offset="0">
        <phase duration="1"  state="rrrrrrrrrrrrrrrrrr"/>
        <phase duration="2"  state="yyyyyyyyyyyyyyyyyy"/>
        <phase duration="1"  state="gggggggggggggggggg"/>
    </tlLogic>
    <tlLogic id="E" type="actuated" programID="E_TLS" offset="0">
        <phase duration="1"  state="rrrrrrrrrr"/>
        <phase duration="2"  state="yyyyyyyyyy"/>
        <phase duration="1"  state="gggggggggg"/>
    </tlLogic>
    <tlLogic id="F" type="actuated" programID="F_TLS" offset="0">
        <phase duration="1"  state="rrrrrrrrrrrrrrrr"/>
        <phase duration="2"  state="yyyyyyyyyyyyyyyy"/>
        <phase duration="1"  state="gggggggggggggggg"/>
    </tlLogic>

    <junction id="A" type="traffic_light" x="100.00" y="200.00" incLanes="AT_A_0 AT_A_1 B_A_0 B_A_1 B_A_2 F_A_0 F_A_1 AL_A_0 AL_A_1 AL_A_2" intLanes=":A_0_0 :A_1_0 :A_1_1 :A_18_0 :A_4_0 :A_5_0 :A_5_1 :A_5_2 :A_19_0 :A_9_0 :A_10_0 :A_10_1 :A_20_0 :A_13_0 :A_14_0 :A_14_1 :A_14_2 :A_21_0" shape="93.60,213.60 106.40,213.60 106.84,211.38 107.40,210.60 108.18,210.04 109.18,209.71 110.40,209.60 110.40,190.40 108.18,189.96 107.40,189.40 106.84,188.62 106.51,187.62 106.40,186.40 93.60,186.40 93.16,188.62 92.60,189.40 91.82,189.96 90.82,190.29 89.60,190.40 89.60,209.60 91.82,210.04 92.60,210.60 93.16,211.38 93.49,212.38">